
---------- Begin Simulation Statistics ----------
final_tick                               114488188000                       # Number of ticks from beginning of simulation (restored from checkpoints and never reset)
host_inst_rate                                 340741                       # Simulator instruction rate (inst/s)
host_mem_usage                                 683484                       # Number of bytes of host memory used
host_op_rate                                   372879                       # Simulator op (including micro ops) rate (op/s)
host_seconds                                   293.48                       # Real time elapsed on the host
host_tick_rate                              390108018                       # Simulator tick rate (ticks/s)
sim_freq                                 1000000000000                       # Frequency of simulated ticks
sim_insts                                   100000001                       # Number of instructions simulated
sim_ops                                     109431937                       # Number of ops (including micro ops) simulated
sim_seconds                                  0.114488                       # Number of seconds simulated
sim_ticks                                114488188000                       # Number of ticks simulated
system.cpu.branchPred.BTBCorrect                    0                       # Number of correct BTB predictions (this stat may not work properly.
system.cpu.branchPred.BTBHitPct             87.597093                       # BTB Hit Percentage
system.cpu.branchPred.BTBHits                 8748157                       # Number of BTB hits
system.cpu.branchPred.BTBLookups              9986812                       # Number of BTB lookups
system.cpu.branchPred.RASInCorrect                348                       # Number of incorrect RAS predictions.
system.cpu.branchPred.condIncorrect            155024                       # Number of conditional branches incorrect
system.cpu.branchPred.condPredicted          16528376                       # Number of conditional branches predicted
system.cpu.branchPred.indirectHits             300026                       # Number of indirect target hits.
system.cpu.branchPred.indirectLookups          540257                       # Number of indirect predictor lookups.
system.cpu.branchPred.indirectMisses           240231                       # Number of indirect misses.
system.cpu.branchPred.lookups                20635800                       # Number of BP lookups
system.cpu.branchPred.usedRAS                 1050692                       # Number of times the RAS was used to get a target.
system.cpu.branchPredindirectMispredicted         1210                       # Number of mispredicted indirect branches.
system.cpu.committedInsts                   100000001                       # Number of instructions committed
system.cpu.committedOps                     109431937                       # Number of ops (including micro ops) committed
system.cpu.cpi                               1.144882                       # CPI: cycles per instruction
system.cpu.discardedOps                        732376                       # Number of ops (including micro ops) which were discarded before commit
system.cpu.dtb.accesses                             0                       # DTB accesses
system.cpu.dtb.align_faults                         0                       # Number of TLB faults due to alignment restrictions
system.cpu.dtb.domain_faults                        0                       # Number of TLB faults due to domain restrictions
system.cpu.dtb.flush_entries                        0                       # Number of entries that have been flushed from TLB
system.cpu.dtb.flush_tlb                            0                       # Number of times complete TLB was flushed
system.cpu.dtb.flush_tlb_asid                       0                       # Number of times TLB was flushed by ASID
system.cpu.dtb.flush_tlb_mva                        0                       # Number of times TLB was flushed by MVA
system.cpu.dtb.flush_tlb_mva_asid                   0                       # Number of times TLB was flushed by MVA & ASID
system.cpu.dtb.hits                                 0                       # DTB hits
system.cpu.dtb.inst_accesses                        0                       # ITB inst accesses
system.cpu.dtb.inst_hits                            0                       # ITB inst hits
system.cpu.dtb.inst_misses                          0                       # ITB inst misses
system.cpu.dtb.misses                               0                       # DTB misses
system.cpu.dtb.perms_faults                         0                       # Number of TLB faults due to permissions restrictions
system.cpu.dtb.prefetch_faults                      0                       # Number of TLB faults due to prefetch
system.cpu.dtb.read_accesses                        0                       # DTB read accesses
system.cpu.dtb.read_hits                            0                       # DTB read hits
system.cpu.dtb.read_misses                          0                       # DTB read misses
system.cpu.dtb.stage2_mmu.stage2_tlb.accesses            0                       # DTB accesses
system.cpu.dtb.stage2_mmu.stage2_tlb.align_faults            0                       # Number of TLB faults due to alignment restrictions
system.cpu.dtb.stage2_mmu.stage2_tlb.domain_faults            0                       # Number of TLB faults due to domain restrictions
system.cpu.dtb.stage2_mmu.stage2_tlb.flush_entries            0                       # Number of entries that have been flushed from TLB
system.cpu.dtb.stage2_mmu.stage2_tlb.flush_tlb            0                       # Number of times complete TLB was flushed
system.cpu.dtb.stage2_mmu.stage2_tlb.flush_tlb_asid            0                       # Number of times TLB was flushed by ASID
system.cpu.dtb.stage2_mmu.stage2_tlb.flush_tlb_mva            0                       # Number of times TLB was flushed by MVA
system.cpu.dtb.stage2_mmu.stage2_tlb.flush_tlb_mva_asid            0                       # Number of times TLB was flushed by MVA & ASID
system.cpu.dtb.stage2_mmu.stage2_tlb.hits            0                       # DTB hits
system.cpu.dtb.stage2_mmu.stage2_tlb.inst_accesses            0                       # ITB inst accesses
system.cpu.dtb.stage2_mmu.stage2_tlb.inst_hits            0                       # ITB inst hits
system.cpu.dtb.stage2_mmu.stage2_tlb.inst_misses            0                       # ITB inst misses
system.cpu.dtb.stage2_mmu.stage2_tlb.misses            0                       # DTB misses
system.cpu.dtb.stage2_mmu.stage2_tlb.perms_faults            0                       # Number of TLB faults due to permissions restrictions
system.cpu.dtb.stage2_mmu.stage2_tlb.prefetch_faults            0                       # Number of TLB faults due to prefetch
system.cpu.dtb.stage2_mmu.stage2_tlb.read_accesses            0                       # DTB read accesses
system.cpu.dtb.stage2_mmu.stage2_tlb.read_hits            0                       # DTB read hits
system.cpu.dtb.stage2_mmu.stage2_tlb.read_misses            0                       # DTB read misses
system.cpu.dtb.stage2_mmu.stage2_tlb.walker.walkRequestOrigin_Requested::Data            0                       # Table walker requests started/completed, data/inst
system.cpu.dtb.stage2_mmu.stage2_tlb.walker.walkRequestOrigin_Requested::Inst            0                       # Table walker requests started/completed, data/inst
system.cpu.dtb.stage2_mmu.stage2_tlb.walker.walkRequestOrigin_Requested::total            0                       # Table walker requests started/completed, data/inst
system.cpu.dtb.stage2_mmu.stage2_tlb.walker.walkRequestOrigin_Completed::Data            0                       # Table walker requests started/completed, data/inst
system.cpu.dtb.stage2_mmu.stage2_tlb.walker.walkRequestOrigin_Completed::Inst            0                       # Table walker requests started/completed, data/inst
system.cpu.dtb.stage2_mmu.stage2_tlb.walker.walkRequestOrigin_Completed::total            0                       # Table walker requests started/completed, data/inst
system.cpu.dtb.stage2_mmu.stage2_tlb.walker.walkRequestOrigin::total            0                       # Table walker requests started/completed, data/inst
system.cpu.dtb.stage2_mmu.stage2_tlb.walker.walks            0                       # Table walker walks requested
system.cpu.dtb.stage2_mmu.stage2_tlb.write_accesses            0                       # DTB write accesses
system.cpu.dtb.stage2_mmu.stage2_tlb.write_hits            0                       # DTB write hits
system.cpu.dtb.stage2_mmu.stage2_tlb.write_misses            0                       # DTB write misses
system.cpu.dtb.walker.walkRequestOrigin_Requested::Data            0                       # Table walker requests started/completed, data/inst
system.cpu.dtb.walker.walkRequestOrigin_Requested::Inst            0                       # Table walker requests started/completed, data/inst
system.cpu.dtb.walker.walkRequestOrigin_Requested::total            0                       # Table walker requests started/completed, data/inst
system.cpu.dtb.walker.walkRequestOrigin_Completed::Data            0                       # Table walker requests started/completed, data/inst
system.cpu.dtb.walker.walkRequestOrigin_Completed::Inst            0                       # Table walker requests started/completed, data/inst
system.cpu.dtb.walker.walkRequestOrigin_Completed::total            0                       # Table walker requests started/completed, data/inst
system.cpu.dtb.walker.walkRequestOrigin::total            0                       # Table walker requests started/completed, data/inst
system.cpu.dtb.walker.walks                         0                       # Table walker walks requested
system.cpu.dtb.write_accesses                       0                       # DTB write accesses
system.cpu.dtb.write_hits                           0                       # DTB write hits
system.cpu.dtb.write_misses                         0                       # DTB write misses
system.cpu.fetch2.amo_instructions                  0                       # Number of memory atomic instructions successfully decoded
system.cpu.fetch2.fp_instructions                   0                       # Number of floating point instructions successfully decoded
system.cpu.fetch2.int_instructions           49964877                       # Number of integer instructions successfully decoded
system.cpu.fetch2.load_instructions          17199434                       # Number of memory load instructions successfully decoded
system.cpu.fetch2.store_instructions         10036420                       # Number of memory store instructions successfully decoded
system.cpu.fetch2.vec_instructions                  0                       # Number of SIMD instructions successfully decoded
system.cpu.idleCycles                         3763704                       # Total number of cycles that the object has spent stopped
system.cpu.ipc                               0.873453                       # IPC: instructions per cycle
system.cpu.itb.accesses                             0                       # DTB accesses
system.cpu.itb.align_faults                         0                       # Number of TLB faults due to alignment restrictions
system.cpu.itb.domain_faults                        0                       # Number of TLB faults due to domain restrictions
system.cpu.itb.flush_entries                        0                       # Number of entries that have been flushed from TLB
system.cpu.itb.flush_tlb                            0                       # Number of times complete TLB was flushed
system.cpu.itb.flush_tlb_asid                       0                       # Number of times TLB was flushed by ASID
system.cpu.itb.flush_tlb_mva                        0                       # Number of times TLB was flushed by MVA
system.cpu.itb.flush_tlb_mva_asid                   0                       # Number of times TLB was flushed by MVA & ASID
system.cpu.itb.hits                                 0                       # DTB hits
system.cpu.itb.inst_accesses                        0                       # ITB inst accesses
system.cpu.itb.inst_hits                            0                       # ITB inst hits
system.cpu.itb.inst_misses                          0                       # ITB inst misses
system.cpu.itb.misses                               0                       # DTB misses
system.cpu.itb.perms_faults                         0                       # Number of TLB faults due to permissions restrictions
system.cpu.itb.prefetch_faults                      0                       # Number of TLB faults due to prefetch
system.cpu.itb.read_accesses                        0                       # DTB read accesses
system.cpu.itb.read_hits                            0                       # DTB read hits
system.cpu.itb.read_misses                          0                       # DTB read misses
system.cpu.itb.stage2_mmu.stage2_tlb.accesses            0                       # DTB accesses
system.cpu.itb.stage2_mmu.stage2_tlb.align_faults            0                       # Number of TLB faults due to alignment restrictions
system.cpu.itb.stage2_mmu.stage2_tlb.domain_faults            0                       # Number of TLB faults due to domain restrictions
system.cpu.itb.stage2_mmu.stage2_tlb.flush_entries            0                       # Number of entries that have been flushed from TLB
system.cpu.itb.stage2_mmu.stage2_tlb.flush_tlb            0                       # Number of times complete TLB was flushed
system.cpu.itb.stage2_mmu.stage2_tlb.flush_tlb_asid            0                       # Number of times TLB was flushed by ASID
system.cpu.itb.stage2_mmu.stage2_tlb.flush_tlb_mva            0                       # Number of times TLB was flushed by MVA
system.cpu.itb.stage2_mmu.stage2_tlb.flush_tlb_mva_asid            0                       # Number of times TLB was flushed by MVA & ASID
system.cpu.itb.stage2_mmu.stage2_tlb.hits            0                       # DTB hits
system.cpu.itb.stage2_mmu.stage2_tlb.inst_accesses            0                       # ITB inst accesses
system.cpu.itb.stage2_mmu.stage2_tlb.inst_hits            0                       # ITB inst hits
system.cpu.itb.stage2_mmu.stage2_tlb.inst_misses            0                       # ITB inst misses
system.cpu.itb.stage2_mmu.stage2_tlb.misses            0                       # DTB misses
system.cpu.itb.stage2_mmu.stage2_tlb.perms_faults            0                       # Number of TLB faults due to permissions restrictions
system.cpu.itb.stage2_mmu.stage2_tlb.prefetch_faults            0                       # Number of TLB faults due to prefetch
system.cpu.itb.stage2_mmu.stage2_tlb.read_accesses            0                       # DTB read accesses
system.cpu.itb.stage2_mmu.stage2_tlb.read_hits            0                       # DTB read hits
system.cpu.itb.stage2_mmu.stage2_tlb.read_misses            0                       # DTB read misses
system.cpu.itb.stage2_mmu.stage2_tlb.walker.walkRequestOrigin_Requested::Data            0                       # Table walker requests started/completed, data/inst
system.cpu.itb.stage2_mmu.stage2_tlb.walker.walkRequestOrigin_Requested::Inst            0                       # Table walker requests started/completed, data/inst
system.cpu.itb.stage2_mmu.stage2_tlb.walker.walkRequestOrigin_Requested::total            0                       # Table walker requests started/completed, data/inst
system.cpu.itb.stage2_mmu.stage2_tlb.walker.walkRequestOrigin_Completed::Data            0                       # Table walker requests started/completed, data/inst
system.cpu.itb.stage2_mmu.stage2_tlb.walker.walkRequestOrigin_Completed::Inst            0                       # Table walker requests started/completed, data/inst
system.cpu.itb.stage2_mmu.stage2_tlb.walker.walkRequestOrigin_Completed::total            0                       # Table walker requests started/completed, data/inst
system.cpu.itb.stage2_mmu.stage2_tlb.walker.walkRequestOrigin::total            0                       # Table walker requests started/completed, data/inst
system.cpu.itb.stage2_mmu.stage2_tlb.walker.walks            0                       # Table walker walks requested
system.cpu.itb.stage2_mmu.stage2_tlb.write_accesses            0                       # DTB write accesses
system.cpu.itb.stage2_mmu.stage2_tlb.write_hits            0                       # DTB write hits
system.cpu.itb.stage2_mmu.stage2_tlb.write_misses            0                       # DTB write misses
system.cpu.itb.walker.walkRequestOrigin_Requested::Data            0                       # Table walker requests started/completed, data/inst
system.cpu.itb.walker.walkRequestOrigin_Requested::Inst            0                       # Table walker requests started/completed, data/inst
system.cpu.itb.walker.walkRequestOrigin_Requested::total            0                       # Table walker requests started/completed, data/inst
system.cpu.itb.walker.walkRequestOrigin_Completed::Data            0                       # Table walker requests started/completed, data/inst
system.cpu.itb.walker.walkRequestOrigin_Completed::Inst            0                       # Table walker requests started/completed, data/inst
system.cpu.itb.walker.walkRequestOrigin_Completed::total            0                       # Table walker requests started/completed, data/inst
system.cpu.itb.walker.walkRequestOrigin::total            0                       # Table walker requests started/completed, data/inst
system.cpu.itb.walker.walks                         0                       # Table walker walks requested
system.cpu.itb.write_accesses                       0                       # DTB write accesses
system.cpu.itb.write_hits                           0                       # DTB write hits
system.cpu.itb.write_misses                         0                       # DTB write misses
system.cpu.numCycles                        114488188                       # number of cpu cycles simulated
system.cpu.numFetchSuspends                         0                       # Number of times Execute suspended instruction fetching
system.cpu.numWorkItemsCompleted                    0                       # number of work items this cpu completed
system.cpu.numWorkItemsStarted                      0                       # number of work items this cpu started
system.cpu.op_class_0::No_OpClass                   0      0.00%      0.00% # Class of committed instruction
system.cpu.op_class_0::IntAlu                72955303     66.67%     66.67% # Class of committed instruction
system.cpu.op_class_0::IntMult                 568365      0.52%     67.19% # Class of committed instruction
system.cpu.op_class_0::IntDiv                       0      0.00%     67.19% # Class of committed instruction
system.cpu.op_class_0::FloatAdd                     0      0.00%     67.19% # Class of committed instruction
system.cpu.op_class_0::FloatCmp                     0      0.00%     67.19% # Class of committed instruction
system.cpu.op_class_0::FloatCvt                     0      0.00%     67.19% # Class of committed instruction
system.cpu.op_class_0::FloatMult                    0      0.00%     67.19% # Class of committed instruction
system.cpu.op_class_0::FloatMultAcc                 0      0.00%     67.19% # Class of committed instruction
system.cpu.op_class_0::FloatDiv                     0      0.00%     67.19% # Class of committed instruction
system.cpu.op_class_0::FloatMisc                    0      0.00%     67.19% # Class of committed instruction
system.cpu.op_class_0::FloatSqrt                    0      0.00%     67.19% # Class of committed instruction
system.cpu.op_class_0::SimdAdd                 241252      0.22%     67.41% # Class of committed instruction
system.cpu.op_class_0::SimdAddAcc                   0      0.00%     67.41% # Class of committed instruction
system.cpu.op_class_0::SimdAlu                 154720      0.14%     67.55% # Class of committed instruction
system.cpu.op_class_0::SimdCmp                 120626      0.11%     67.66% # Class of committed instruction
system.cpu.op_class_0::SimdCvt                      0      0.00%     67.66% # Class of committed instruction
system.cpu.op_class_0::SimdMisc                 44544      0.04%     67.70% # Class of committed instruction
system.cpu.op_class_0::SimdMult                     0      0.00%     67.70% # Class of committed instruction
system.cpu.op_class_0::SimdMultAcc                  0      0.00%     67.70% # Class of committed instruction
system.cpu.op_class_0::SimdShift                    0      0.00%     67.70% # Class of committed instruction
system.cpu.op_class_0::SimdShiftAcc                 0      0.00%     67.70% # Class of committed instruction
system.cpu.op_class_0::SimdDiv                      0      0.00%     67.70% # Class of committed instruction
system.cpu.op_class_0::SimdSqrt                     0      0.00%     67.70% # Class of committed instruction
system.cpu.op_class_0::SimdFloatAdd                 0      0.00%     67.70% # Class of committed instruction
system.cpu.op_class_0::SimdFloatAlu                 0      0.00%     67.70% # Class of committed instruction
system.cpu.op_class_0::SimdFloatCmp                 0      0.00%     67.70% # Class of committed instruction
system.cpu.op_class_0::SimdFloatCvt                 0      0.00%     67.70% # Class of committed instruction
system.cpu.op_class_0::SimdFloatDiv                 0      0.00%     67.70% # Class of committed instruction
system.cpu.op_class_0::SimdFloatMisc           166465      0.15%     67.85% # Class of committed instruction
system.cpu.op_class_0::SimdFloatMult                0      0.00%     67.85% # Class of committed instruction
system.cpu.op_class_0::SimdFloatMultAcc             0      0.00%     67.85% # Class of committed instruction
system.cpu.op_class_0::SimdFloatSqrt                0      0.00%     67.85% # Class of committed instruction
system.cpu.op_class_0::SimdReduceAdd                0      0.00%     67.85% # Class of committed instruction
system.cpu.op_class_0::SimdReduceAlu                0      0.00%     67.85% # Class of committed instruction
system.cpu.op_class_0::SimdReduceCmp                0      0.00%     67.85% # Class of committed instruction
system.cpu.op_class_0::SimdFloatReduceAdd            0      0.00%     67.85% # Class of committed instruction
system.cpu.op_class_0::SimdFloatReduceCmp            0      0.00%     67.85% # Class of committed instruction
system.cpu.op_class_0::SimdAes                      0      0.00%     67.85% # Class of committed instruction
system.cpu.op_class_0::SimdAesMix                   0      0.00%     67.85% # Class of committed instruction
system.cpu.op_class_0::SimdSha1Hash                 0      0.00%     67.85% # Class of committed instruction
system.cpu.op_class_0::SimdSha1Hash2                0      0.00%     67.85% # Class of committed instruction
system.cpu.op_class_0::SimdSha256Hash               0      0.00%     67.85% # Class of committed instruction
system.cpu.op_class_0::SimdSha256Hash2              0      0.00%     67.85% # Class of committed instruction
system.cpu.op_class_0::SimdShaSigma2                0      0.00%     67.85% # Class of committed instruction
system.cpu.op_class_0::SimdShaSigma3                0      0.00%     67.85% # Class of committed instruction
system.cpu.op_class_0::SimdPredAlu                  0      0.00%     67.85% # Class of committed instruction
system.cpu.op_class_0::MemRead               20646465     18.87%     86.72% # Class of committed instruction
system.cpu.op_class_0::MemWrite              14534197     13.28%    100.00% # Class of committed instruction
system.cpu.op_class_0::FloatMemRead                 0      0.00%    100.00% # Class of committed instruction
system.cpu.op_class_0::FloatMemWrite                0      0.00%    100.00% # Class of committed instruction
system.cpu.op_class_0::IprAccess                    0      0.00%    100.00% # Class of committed instruction
system.cpu.op_class_0::InstPrefetch                 0      0.00%    100.00% # Class of committed instruction
system.cpu.op_class_0::total                109431937                       # Class of committed instruction
system.cpu.tickCycles                       110724484                       # Number of cycles that the object actually ticked
system.cpu.workload.numSyscalls                    86                       # Number of system calls
system.membus.snoop_filter.hit_multi_requests            0                       # Number of requests hitting in the snoop filter with multiple (>1) holders of the requested data.
system.membus.snoop_filter.hit_multi_snoops            0                       # Number of snoops hitting in the snoop filter with multiple (>1) holders of the requested data.
system.membus.snoop_filter.hit_single_requests        38004                       # Number of requests hitting in the snoop filter with a single holder of the requested data.
system.membus.snoop_filter.hit_single_snoops            0                       # Number of snoops hitting in the snoop filter with a single holder of the requested data.
system.membus.snoop_filter.tot_requests         84666                       # Total number of requests made to the snoop filter.
system.membus.snoop_filter.tot_snoops               0                       # Total number of snoops made to the snoop filter.
system.tol2bus.snoop_filter.hit_multi_requests           20                       # Number of requests hitting in the snoop filter with multiple (>1) holders of the requested data.
system.tol2bus.snoop_filter.hit_multi_snoops            5                       # Number of snoops hitting in the snoop filter with multiple (>1) holders of the requested data.
system.tol2bus.snoop_filter.hit_single_requests        59639                       # Number of requests hitting in the snoop filter with a single holder of the requested data.
system.tol2bus.snoop_filter.hit_single_snoops          739                       # Number of snoops hitting in the snoop filter with a single holder of the requested data.
system.tol2bus.snoop_filter.tot_requests       120225                       # Total number of requests made to the snoop filter.
system.tol2bus.snoop_filter.tot_snoops            744                       # Total number of snoops made to the snoop filter.
system.membus.pwrStateResidencyTicks::UNDEFINED 114488188000                       # Cumulative time (in ticks) in various power states
system.membus.trans_dist::ReadResp               7852                       # Transaction distribution
system.membus.trans_dist::WritebackDirty        37632                       # Transaction distribution
system.membus.trans_dist::CleanEvict              370                       # Transaction distribution
system.membus.trans_dist::ReadExReq             38812                       # Transaction distribution
system.membus.trans_dist::ReadExResp            38812                       # Transaction distribution
system.membus.trans_dist::ReadSharedReq          7852                       # Transaction distribution
system.membus.pkt_count_system.l2.mem_side::system.mem_ctrls.port       131330                       # Packet count per connected master and slave (bytes)
system.membus.pkt_count::total                 131330                       # Packet count per connected master and slave (bytes)
system.membus.pkt_size_system.l2.mem_side::system.mem_ctrls.port      5394944                       # Cumulative packet size per connected master and slave (bytes)
system.membus.pkt_size::total                 5394944                       # Cumulative packet size per connected master and slave (bytes)
system.membus.snoops                                0                       # Total snoops (count)
system.membus.snoopTraffic                          0                       # Total snoop traffic (bytes)
system.membus.snoop_fanout::samples             46664                       # Request fanout histogram
system.membus.snoop_fanout::mean                    0                       # Request fanout histogram
system.membus.snoop_fanout::stdev                   0                       # Request fanout histogram
system.membus.snoop_fanout::underflows              0      0.00%      0.00% # Request fanout histogram
system.membus.snoop_fanout::0                   46664    100.00%    100.00% # Request fanout histogram
system.membus.snoop_fanout::1                       0      0.00%    100.00% # Request fanout histogram
system.membus.snoop_fanout::overflows               0      0.00%    100.00% # Request fanout histogram
system.membus.snoop_fanout::min_value               0                       # Request fanout histogram
system.membus.snoop_fanout::max_value               0                       # Request fanout histogram
system.membus.snoop_fanout::total               46664                       # Request fanout histogram
system.membus.respLayer1.occupancy          251955750                       # Layer occupancy (ticks)
system.membus.respLayer1.utilization              0.2                       # Layer utilization (%)
system.membus.reqLayer0.occupancy           235194000                       # Layer occupancy (ticks)
system.membus.reqLayer0.utilization               0.2                       # Layer utilization (%)
system.tol2bus.pwrStateResidencyTicks::UNDEFINED 114488188000                       # Cumulative time (in ticks) in various power states
system.tol2bus.trans_dist::ReadResp             21767                       # Transaction distribution
system.tol2bus.trans_dist::WritebackDirty        89543                       # Transaction distribution
system.tol2bus.trans_dist::WritebackClean          758                       # Transaction distribution
system.tol2bus.trans_dist::CleanEvict            7959                       # Transaction distribution
system.tol2bus.trans_dist::ReadExReq            38823                       # Transaction distribution
system.tol2bus.trans_dist::ReadExResp           38823                       # Transaction distribution
system.tol2bus.trans_dist::ReadCleanReq          1201                       # Transaction distribution
system.tol2bus.trans_dist::ReadSharedReq        20566                       # Transaction distribution
system.tol2bus.pkt_count_system.cpu.icache.mem_side::system.l2.cpu_side         3160                       # Packet count per connected master and slave (bytes)
system.tol2bus.pkt_count_system.cpu.dcache.mem_side::system.l2.cpu_side       177655                       # Packet count per connected master and slave (bytes)
system.tol2bus.pkt_count::total                180815                       # Packet count per connected master and slave (bytes)
system.tol2bus.pkt_size_system.cpu.icache.mem_side::system.l2.cpu_side       125376                       # Cumulative packet size per connected master and slave (bytes)
system.tol2bus.pkt_size_system.cpu.dcache.mem_side::system.l2.cpu_side      7123200                       # Cumulative packet size per connected master and slave (bytes)
system.tol2bus.pkt_size::total                7248576                       # Cumulative packet size per connected master and slave (bytes)
system.tol2bus.snoops                           38625                       # Total snoops (count)
system.tol2bus.snoopTraffic                   2408448                       # Total snoop traffic (bytes)
system.tol2bus.snoop_fanout::samples            99215                       # Request fanout histogram
system.tol2bus.snoop_fanout::mean            0.007791                       # Request fanout histogram
system.tol2bus.snoop_fanout::stdev           0.088495                       # Request fanout histogram
system.tol2bus.snoop_fanout::underflows             0      0.00%      0.00% # Request fanout histogram
system.tol2bus.snoop_fanout::0                  98447     99.23%     99.23% # Request fanout histogram
system.tol2bus.snoop_fanout::1                    763      0.77%     99.99% # Request fanout histogram
system.tol2bus.snoop_fanout::2                      5      0.01%    100.00% # Request fanout histogram
system.tol2bus.snoop_fanout::overflows              0      0.00%    100.00% # Request fanout histogram
system.tol2bus.snoop_fanout::min_value              0                       # Request fanout histogram
system.tol2bus.snoop_fanout::max_value              2                       # Request fanout histogram
system.tol2bus.snoop_fanout::total              99215                       # Request fanout histogram
system.tol2bus.reqLayer0.occupancy          225563000                       # Layer occupancy (ticks)
system.tol2bus.reqLayer0.utilization              0.2                       # Layer utilization (%)
system.tol2bus.respLayer1.occupancy         178171995                       # Layer occupancy (ticks)
system.tol2bus.respLayer1.utilization             0.2                       # Layer utilization (%)
system.tol2bus.respLayer0.occupancy           3603999                       # Layer occupancy (ticks)
system.tol2bus.respLayer0.utilization             0.0                       # Layer utilization (%)
system.voltage_domain.voltage                       1                       # Voltage in Volts
system.clk_domain.clock                          1000                       # Clock period in ticks
system.l2.pwrStateResidencyTicks::UNDEFINED 114488188000                       # Cumulative time (in ticks) in various power states
system.l2.demand_hits::.cpu.inst                  683                       # number of demand (read+write) hits
system.l2.demand_hits::.cpu.data                13237                       # number of demand (read+write) hits
system.l2.demand_hits::total                    13920                       # number of demand (read+write) hits
system.l2.overall_hits::.cpu.inst                 683                       # number of overall hits
system.l2.overall_hits::.cpu.data               13237                       # number of overall hits
system.l2.overall_hits::total                   13920                       # number of overall hits
system.l2.demand_misses::.cpu.inst                518                       # number of demand (read+write) misses
system.l2.demand_misses::.cpu.data              46152                       # number of demand (read+write) misses
system.l2.demand_misses::total                  46670                       # number of demand (read+write) misses
system.l2.overall_misses::.cpu.inst               518                       # number of overall misses
system.l2.overall_misses::.cpu.data             46152                       # number of overall misses
system.l2.overall_misses::total                 46670                       # number of overall misses
system.l2.demand_miss_latency::.cpu.inst     51010000                       # number of demand (read+write) miss cycles
system.l2.demand_miss_latency::.cpu.data   5137250000                       # number of demand (read+write) miss cycles
system.l2.demand_miss_latency::total       5188260000                       # number of demand (read+write) miss cycles
system.l2.overall_miss_latency::.cpu.inst     51010000                       # number of overall miss cycles
system.l2.overall_miss_latency::.cpu.data   5137250000                       # number of overall miss cycles
system.l2.overall_miss_latency::total      5188260000                       # number of overall miss cycles
system.l2.demand_accesses::.cpu.inst             1201                       # number of demand (read+write) accesses
system.l2.demand_accesses::.cpu.data            59389                       # number of demand (read+write) accesses
system.l2.demand_accesses::total                60590                       # number of demand (read+write) accesses
system.l2.overall_accesses::.cpu.inst            1201                       # number of overall (read+write) accesses
system.l2.overall_accesses::.cpu.data           59389                       # number of overall (read+write) accesses
system.l2.overall_accesses::total               60590                       # number of overall (read+write) accesses
system.l2.demand_miss_rate::.cpu.inst        0.431307                       # miss rate for demand accesses
system.l2.demand_miss_rate::.cpu.data        0.777114                       # miss rate for demand accesses
system.l2.demand_miss_rate::total            0.770259                       # miss rate for demand accesses
system.l2.overall_miss_rate::.cpu.inst       0.431307                       # miss rate for overall accesses
system.l2.overall_miss_rate::.cpu.data       0.777114                       # miss rate for overall accesses
system.l2.overall_miss_rate::total           0.770259                       # miss rate for overall accesses
system.l2.demand_avg_miss_latency::.cpu.inst 98474.903475                       # average overall miss latency
system.l2.demand_avg_miss_latency::.cpu.data 111311.535795                       # average overall miss latency
system.l2.demand_avg_miss_latency::total 111169.059353                       # average overall miss latency
system.l2.overall_avg_miss_latency::.cpu.inst 98474.903475                       # average overall miss latency
system.l2.overall_avg_miss_latency::.cpu.data 111311.535795                       # average overall miss latency
system.l2.overall_avg_miss_latency::total 111169.059353                       # average overall miss latency
system.l2.blocked_cycles::no_mshrs                  0                       # number of cycles access was blocked
system.l2.blocked_cycles::no_targets                0                       # number of cycles access was blocked
system.l2.blocked::no_mshrs                         0                       # number of cycles access was blocked
system.l2.blocked::no_targets                       0                       # number of cycles access was blocked
system.l2.avg_blocked_cycles::no_mshrs            nan                       # average number of cycles each access was blocked
system.l2.avg_blocked_cycles::no_targets          nan                       # average number of cycles each access was blocked
system.l2.writebacks::.writebacks               37632                       # number of writebacks
system.l2.writebacks::total                     37632                       # number of writebacks
system.l2.demand_mshr_hits::.cpu.inst               1                       # number of demand (read+write) MSHR hits
system.l2.demand_mshr_hits::.cpu.data               5                       # number of demand (read+write) MSHR hits
system.l2.demand_mshr_hits::total                   6                       # number of demand (read+write) MSHR hits
system.l2.overall_mshr_hits::.cpu.inst              1                       # number of overall MSHR hits
system.l2.overall_mshr_hits::.cpu.data              5                       # number of overall MSHR hits
system.l2.overall_mshr_hits::total                  6                       # number of overall MSHR hits
system.l2.demand_mshr_misses::.cpu.inst           517                       # number of demand (read+write) MSHR misses
system.l2.demand_mshr_misses::.cpu.data         46147                       # number of demand (read+write) MSHR misses
system.l2.demand_mshr_misses::total             46664                       # number of demand (read+write) MSHR misses
system.l2.overall_mshr_misses::.cpu.inst          517                       # number of overall MSHR misses
system.l2.overall_mshr_misses::.cpu.data        46147                       # number of overall MSHR misses
system.l2.overall_mshr_misses::total            46664                       # number of overall MSHR misses
system.l2.demand_mshr_miss_latency::.cpu.inst     40590000                       # number of demand (read+write) MSHR miss cycles
system.l2.demand_mshr_miss_latency::.cpu.data   4213902000                       # number of demand (read+write) MSHR miss cycles
system.l2.demand_mshr_miss_latency::total   4254492000                       # number of demand (read+write) MSHR miss cycles
system.l2.overall_mshr_miss_latency::.cpu.inst     40590000                       # number of overall MSHR miss cycles
system.l2.overall_mshr_miss_latency::.cpu.data   4213902000                       # number of overall MSHR miss cycles
system.l2.overall_mshr_miss_latency::total   4254492000                       # number of overall MSHR miss cycles
system.l2.demand_mshr_miss_rate::.cpu.inst     0.430475                       # mshr miss rate for demand accesses
system.l2.demand_mshr_miss_rate::.cpu.data     0.777029                       # mshr miss rate for demand accesses
system.l2.demand_mshr_miss_rate::total       0.770160                       # mshr miss rate for demand accesses
system.l2.overall_mshr_miss_rate::.cpu.inst     0.430475                       # mshr miss rate for overall accesses
system.l2.overall_mshr_miss_rate::.cpu.data     0.777029                       # mshr miss rate for overall accesses
system.l2.overall_mshr_miss_rate::total      0.770160                       # mshr miss rate for overall accesses
system.l2.demand_avg_mshr_miss_latency::.cpu.inst 78510.638298                       # average overall mshr miss latency
system.l2.demand_avg_mshr_miss_latency::.cpu.data 91314.755022                       # average overall mshr miss latency
system.l2.demand_avg_mshr_miss_latency::total 91172.895594                       # average overall mshr miss latency
system.l2.overall_avg_mshr_miss_latency::.cpu.inst 78510.638298                       # average overall mshr miss latency
system.l2.overall_avg_mshr_miss_latency::.cpu.data 91314.755022                       # average overall mshr miss latency
system.l2.overall_avg_mshr_miss_latency::total 91172.895594                       # average overall mshr miss latency
system.l2.replacements                          38625                       # number of replacements
system.l2.WritebackDirty_hits::.writebacks        51911                       # number of WritebackDirty hits
system.l2.WritebackDirty_hits::total            51911                       # number of WritebackDirty hits
system.l2.WritebackDirty_accesses::.writebacks        51911                       # number of WritebackDirty accesses(hits+misses)
system.l2.WritebackDirty_accesses::total        51911                       # number of WritebackDirty accesses(hits+misses)
system.l2.WritebackClean_hits::.writebacks          755                       # number of WritebackClean hits
system.l2.WritebackClean_hits::total              755                       # number of WritebackClean hits
system.l2.WritebackClean_accesses::.writebacks          755                       # number of WritebackClean accesses(hits+misses)
system.l2.WritebackClean_accesses::total          755                       # number of WritebackClean accesses(hits+misses)
system.l2.CleanEvict_mshr_misses::.writebacks          121                       # number of CleanEvict MSHR misses
system.l2.CleanEvict_mshr_misses::total           121                       # number of CleanEvict MSHR misses
system.l2.CleanEvict_mshr_miss_rate::.writebacks          inf                       # mshr miss rate for CleanEvict accesses
system.l2.CleanEvict_mshr_miss_rate::total          inf                       # mshr miss rate for CleanEvict accesses
system.l2.ReadExReq_hits::.cpu.data                11                       # number of ReadExReq hits
system.l2.ReadExReq_hits::total                    11                       # number of ReadExReq hits
system.l2.ReadExReq_misses::.cpu.data           38812                       # number of ReadExReq misses
system.l2.ReadExReq_misses::total               38812                       # number of ReadExReq misses
system.l2.ReadExReq_miss_latency::.cpu.data   4297771000                       # number of ReadExReq miss cycles
system.l2.ReadExReq_miss_latency::total    4297771000                       # number of ReadExReq miss cycles
system.l2.ReadExReq_accesses::.cpu.data         38823                       # number of ReadExReq accesses(hits+misses)
system.l2.ReadExReq_accesses::total             38823                       # number of ReadExReq accesses(hits+misses)
system.l2.ReadExReq_miss_rate::.cpu.data     0.999717                       # miss rate for ReadExReq accesses
system.l2.ReadExReq_miss_rate::total         0.999717                       # miss rate for ReadExReq accesses
system.l2.ReadExReq_avg_miss_latency::.cpu.data 110733.046480                       # average ReadExReq miss latency
system.l2.ReadExReq_avg_miss_latency::total 110733.046480                       # average ReadExReq miss latency
system.l2.ReadExReq_mshr_misses::.cpu.data        38812                       # number of ReadExReq MSHR misses
system.l2.ReadExReq_mshr_misses::total          38812                       # number of ReadExReq MSHR misses
system.l2.ReadExReq_mshr_miss_latency::.cpu.data   3521531000                       # number of ReadExReq MSHR miss cycles
system.l2.ReadExReq_mshr_miss_latency::total   3521531000                       # number of ReadExReq MSHR miss cycles
system.l2.ReadExReq_mshr_miss_rate::.cpu.data     0.999717                       # mshr miss rate for ReadExReq accesses
system.l2.ReadExReq_mshr_miss_rate::total     0.999717                       # mshr miss rate for ReadExReq accesses
system.l2.ReadExReq_avg_mshr_miss_latency::.cpu.data 90733.046480                       # average ReadExReq mshr miss latency
system.l2.ReadExReq_avg_mshr_miss_latency::total 90733.046480                       # average ReadExReq mshr miss latency
system.l2.ReadCleanReq_hits::.cpu.inst            683                       # number of ReadCleanReq hits
system.l2.ReadCleanReq_hits::total                683                       # number of ReadCleanReq hits
system.l2.ReadCleanReq_misses::.cpu.inst          518                       # number of ReadCleanReq misses
system.l2.ReadCleanReq_misses::total              518                       # number of ReadCleanReq misses
system.l2.ReadCleanReq_miss_latency::.cpu.inst     51010000                       # number of ReadCleanReq miss cycles
system.l2.ReadCleanReq_miss_latency::total     51010000                       # number of ReadCleanReq miss cycles
system.l2.ReadCleanReq_accesses::.cpu.inst         1201                       # number of ReadCleanReq accesses(hits+misses)
system.l2.ReadCleanReq_accesses::total           1201                       # number of ReadCleanReq accesses(hits+misses)
system.l2.ReadCleanReq_miss_rate::.cpu.inst     0.431307                       # miss rate for ReadCleanReq accesses
system.l2.ReadCleanReq_miss_rate::total      0.431307                       # miss rate for ReadCleanReq accesses
system.l2.ReadCleanReq_avg_miss_latency::.cpu.inst 98474.903475                       # average ReadCleanReq miss latency
system.l2.ReadCleanReq_avg_miss_latency::total 98474.903475                       # average ReadCleanReq miss latency
system.l2.ReadCleanReq_mshr_hits::.cpu.inst            1                       # number of ReadCleanReq MSHR hits
system.l2.ReadCleanReq_mshr_hits::total             1                       # number of ReadCleanReq MSHR hits
system.l2.ReadCleanReq_mshr_misses::.cpu.inst          517                       # number of ReadCleanReq MSHR misses
system.l2.ReadCleanReq_mshr_misses::total          517                       # number of ReadCleanReq MSHR misses
system.l2.ReadCleanReq_mshr_miss_latency::.cpu.inst     40590000                       # number of ReadCleanReq MSHR miss cycles
system.l2.ReadCleanReq_mshr_miss_latency::total     40590000                       # number of ReadCleanReq MSHR miss cycles
system.l2.ReadCleanReq_mshr_miss_rate::.cpu.inst     0.430475                       # mshr miss rate for ReadCleanReq accesses
system.l2.ReadCleanReq_mshr_miss_rate::total     0.430475                       # mshr miss rate for ReadCleanReq accesses
system.l2.ReadCleanReq_avg_mshr_miss_latency::.cpu.inst 78510.638298                       # average ReadCleanReq mshr miss latency
system.l2.ReadCleanReq_avg_mshr_miss_latency::total 78510.638298                       # average ReadCleanReq mshr miss latency
system.l2.ReadSharedReq_hits::.cpu.data         13226                       # number of ReadSharedReq hits
system.l2.ReadSharedReq_hits::total             13226                       # number of ReadSharedReq hits
system.l2.ReadSharedReq_misses::.cpu.data         7340                       # number of ReadSharedReq misses
system.l2.ReadSharedReq_misses::total            7340                       # number of ReadSharedReq misses
system.l2.ReadSharedReq_miss_latency::.cpu.data    839479000                       # number of ReadSharedReq miss cycles
system.l2.ReadSharedReq_miss_latency::total    839479000                       # number of ReadSharedReq miss cycles
system.l2.ReadSharedReq_accesses::.cpu.data        20566                       # number of ReadSharedReq accesses(hits+misses)
system.l2.ReadSharedReq_accesses::total         20566                       # number of ReadSharedReq accesses(hits+misses)
system.l2.ReadSharedReq_miss_rate::.cpu.data     0.356900                       # miss rate for ReadSharedReq accesses
system.l2.ReadSharedReq_miss_rate::total     0.356900                       # miss rate for ReadSharedReq accesses
system.l2.ReadSharedReq_avg_miss_latency::.cpu.data 114370.435967                       # average ReadSharedReq miss latency
system.l2.ReadSharedReq_avg_miss_latency::total 114370.435967                       # average ReadSharedReq miss latency
system.l2.ReadSharedReq_mshr_hits::.cpu.data            5                       # number of ReadSharedReq MSHR hits
system.l2.ReadSharedReq_mshr_hits::total            5                       # number of ReadSharedReq MSHR hits
system.l2.ReadSharedReq_mshr_misses::.cpu.data         7335                       # number of ReadSharedReq MSHR misses
system.l2.ReadSharedReq_mshr_misses::total         7335                       # number of ReadSharedReq MSHR misses
system.l2.ReadSharedReq_mshr_miss_latency::.cpu.data    692371000                       # number of ReadSharedReq MSHR miss cycles
system.l2.ReadSharedReq_mshr_miss_latency::total    692371000                       # number of ReadSharedReq MSHR miss cycles
system.l2.ReadSharedReq_mshr_miss_rate::.cpu.data     0.356657                       # mshr miss rate for ReadSharedReq accesses
system.l2.ReadSharedReq_mshr_miss_rate::total     0.356657                       # mshr miss rate for ReadSharedReq accesses
system.l2.ReadSharedReq_avg_mshr_miss_latency::.cpu.data 94392.774369                       # average ReadSharedReq mshr miss latency
system.l2.ReadSharedReq_avg_mshr_miss_latency::total 94392.774369                       # average ReadSharedReq mshr miss latency
system.l2.tags.pwrStateResidencyTicks::UNDEFINED 114488188000                       # Cumulative time (in ticks) in various power states
system.l2.tags.tagsinuse                  7977.973196                       # Cycle average of tags in use
system.l2.tags.total_refs                      120078                       # Total number of references to valid blocks.
system.l2.tags.sampled_refs                     46817                       # Sample count of references to valid blocks.
system.l2.tags.avg_refs                      2.564838                       # Average number of references to valid blocks.
system.l2.tags.warmup_cycle                     87000                       # Cycle when the warmup percentage was hit.
system.l2.tags.occ_blocks::.writebacks      21.562857                       # Average occupied blocks per requestor
system.l2.tags.occ_blocks::.cpu.inst        23.028072                       # Average occupied blocks per requestor
system.l2.tags.occ_blocks::.cpu.data      7933.382267                       # Average occupied blocks per requestor
system.l2.tags.occ_percent::.writebacks      0.002632                       # Average percentage of cache occupancy
system.l2.tags.occ_percent::.cpu.inst        0.002811                       # Average percentage of cache occupancy
system.l2.tags.occ_percent::.cpu.data        0.968430                       # Average percentage of cache occupancy
system.l2.tags.occ_percent::total            0.973874                       # Average percentage of cache occupancy
system.l2.tags.occ_task_id_blocks::1024          8192                       # Occupied blocks per task id
system.l2.tags.age_task_id_blocks_1024::0            2                       # Occupied blocks per task id
system.l2.tags.age_task_id_blocks_1024::1           17                       # Occupied blocks per task id
system.l2.tags.age_task_id_blocks_1024::2          236                       # Occupied blocks per task id
system.l2.tags.age_task_id_blocks_1024::3         2508                       # Occupied blocks per task id
system.l2.tags.age_task_id_blocks_1024::4         5429                       # Occupied blocks per task id
system.l2.tags.occ_task_id_percent::1024            1                       # Percentage of cache occupancy per task id
system.l2.tags.tag_accesses                    287227                       # Number of tag accesses
system.l2.tags.data_accesses                   287227                       # Number of data accesses
system.cpu_voltage_domain.voltage                   1                       # Voltage in Volts
system.mem_ctrls.pwrStateResidencyTicks::UNDEFINED 114488188000                       # Cumulative time (in ticks) in various power states
system.mem_ctrls.bytes_read::.cpu.inst          33088                       # Number of bytes read from this memory
system.mem_ctrls.bytes_read::.cpu.data        2953408                       # Number of bytes read from this memory
system.mem_ctrls.bytes_read::total            2986496                       # Number of bytes read from this memory
system.mem_ctrls.bytes_inst_read::.cpu.inst        33088                       # Number of instructions bytes read from this memory
system.mem_ctrls.bytes_inst_read::total         33088                       # Number of instructions bytes read from this memory
system.mem_ctrls.bytes_written::.writebacks      2408448                       # Number of bytes written to this memory
system.mem_ctrls.bytes_written::total         2408448                       # Number of bytes written to this memory
system.mem_ctrls.num_reads::.cpu.inst             517                       # Number of read requests responded to by this memory
system.mem_ctrls.num_reads::.cpu.data           46147                       # Number of read requests responded to by this memory
system.mem_ctrls.num_reads::total               46664                       # Number of read requests responded to by this memory
system.mem_ctrls.num_writes::.writebacks        37632                       # Number of write requests responded to by this memory
system.mem_ctrls.num_writes::total              37632                       # Number of write requests responded to by this memory
system.mem_ctrls.bw_read::.cpu.inst            289008                       # Total read bandwidth from this memory (bytes/s)
system.mem_ctrls.bw_read::.cpu.data          25796618                       # Total read bandwidth from this memory (bytes/s)
system.mem_ctrls.bw_read::total              26085626                       # Total read bandwidth from this memory (bytes/s)
system.mem_ctrls.bw_inst_read::.cpu.inst       289008                       # Instruction read bandwidth from this memory (bytes/s)
system.mem_ctrls.bw_inst_read::total           289008                       # Instruction read bandwidth from this memory (bytes/s)
system.mem_ctrls.bw_write::.writebacks       21036651                       # Write bandwidth from this memory (bytes/s)
system.mem_ctrls.bw_write::total             21036651                       # Write bandwidth from this memory (bytes/s)
system.mem_ctrls.bw_total::.writebacks       21036651                       # Total bandwidth to/from this memory (bytes/s)
system.mem_ctrls.bw_total::.cpu.inst           289008                       # Total bandwidth to/from this memory (bytes/s)
system.mem_ctrls.bw_total::.cpu.data         25796618                       # Total bandwidth to/from this memory (bytes/s)
system.mem_ctrls.bw_total::total             47122276                       # Total bandwidth to/from this memory (bytes/s)
system.mem_ctrls.avgPriority_.writebacks::samples     37632.00                       # Average QoS priority value for accepted requests
system.mem_ctrls.avgPriority_.cpu.inst::samples       517.00                       # Average QoS priority value for accepted requests
system.mem_ctrls.avgPriority_.cpu.data::samples     46132.00                       # Average QoS priority value for accepted requests
system.mem_ctrls.priorityMinLatency      0.000000018750                       # per QoS priority minimum request to response latency (s)
system.mem_ctrls.priorityMaxLatency      0.001014042500                       # per QoS priority maximum request to response latency (s)
system.mem_ctrls.numReadWriteTurnArounds         2111                       # Number of turnarounds from READ to WRITE
system.mem_ctrls.numWriteReadTurnArounds         2111                       # Number of turnarounds from WRITE to READ
system.mem_ctrls.numStayReadState              159704                       # Number of times bus staying in READ state
system.mem_ctrls.numStayWriteState              35560                       # Number of times bus staying in WRITE state
system.mem_ctrls.readReqs                       46664                       # Number of read requests accepted
system.mem_ctrls.writeReqs                      37632                       # Number of write requests accepted
system.mem_ctrls.readBursts                     46664                       # Number of DRAM read bursts, including those serviced by the write queue
system.mem_ctrls.writeBursts                    37632                       # Number of DRAM write bursts, including those merged in the write queue
system.mem_ctrls.servicedByWrQ                     15                       # Number of DRAM read bursts serviced by the write queue
system.mem_ctrls.mergedWrBursts                     0                       # Number of DRAM write bursts merged with an existing one
system.mem_ctrls.neitherReadNorWriteReqs            0                       # Number of requests that are neither read nor write
system.mem_ctrls.perBankRdBursts::0              2880                       # Per bank write bursts
system.mem_ctrls.perBankRdBursts::1              2759                       # Per bank write bursts
system.mem_ctrls.perBankRdBursts::2              2732                       # Per bank write bursts
system.mem_ctrls.perBankRdBursts::3              3109                       # Per bank write bursts
system.mem_ctrls.perBankRdBursts::4              3285                       # Per bank write bursts
system.mem_ctrls.perBankRdBursts::5              2853                       # Per bank write bursts
system.mem_ctrls.perBankRdBursts::6              2870                       # Per bank write bursts
system.mem_ctrls.perBankRdBursts::7              2894                       # Per bank write bursts
system.mem_ctrls.perBankRdBursts::8              2883                       # Per bank write bursts
system.mem_ctrls.perBankRdBursts::9              2908                       # Per bank write bursts
system.mem_ctrls.perBankRdBursts::10             2898                       # Per bank write bursts
system.mem_ctrls.perBankRdBursts::11             2937                       # Per bank write bursts
system.mem_ctrls.perBankRdBursts::12             2933                       # Per bank write bursts
system.mem_ctrls.perBankRdBursts::13             2877                       # Per bank write bursts
system.mem_ctrls.perBankRdBursts::14             2950                       # Per bank write bursts
system.mem_ctrls.perBankRdBursts::15             2881                       # Per bank write bursts
system.mem_ctrls.perBankWrBursts::0              2300                       # Per bank write bursts
system.mem_ctrls.perBankWrBursts::1              2216                       # Per bank write bursts
system.mem_ctrls.perBankWrBursts::2              2204                       # Per bank write bursts
system.mem_ctrls.perBankWrBursts::3              2425                       # Per bank write bursts
system.mem_ctrls.perBankWrBursts::4              2615                       # Per bank write bursts
system.mem_ctrls.perBankWrBursts::5              2341                       # Per bank write bursts
system.mem_ctrls.perBankWrBursts::6              2360                       # Per bank write bursts
system.mem_ctrls.perBankWrBursts::7              2355                       # Per bank write bursts
system.mem_ctrls.perBankWrBursts::8              2345                       # Per bank write bursts
system.mem_ctrls.perBankWrBursts::9              2340                       # Per bank write bursts
system.mem_ctrls.perBankWrBursts::10             2349                       # Per bank write bursts
system.mem_ctrls.perBankWrBursts::11             2366                       # Per bank write bursts
system.mem_ctrls.perBankWrBursts::12             2365                       # Per bank write bursts
system.mem_ctrls.perBankWrBursts::13             2339                       # Per bank write bursts
system.mem_ctrls.perBankWrBursts::14             2362                       # Per bank write bursts
system.mem_ctrls.perBankWrBursts::15             2335                       # Per bank write bursts
system.mem_ctrls.avgRdQLen                       1.06                       # Average read queue length when enqueuing
system.mem_ctrls.avgWrQLen                      24.09                       # Average write queue length when enqueuing
system.mem_ctrls.totQLat                    981441750                       # Total ticks spent queuing
system.mem_ctrls.totBusLat                  233245000                       # Total ticks spent in databus transfers
system.mem_ctrls.totMemAccLat              1856110500                       # Total ticks spent from burst creation until serviced by the DRAM
system.mem_ctrls.avgQLat                     21038.86                       # Average queueing delay per DRAM burst
system.mem_ctrls.avgBusLat                    5000.00                       # Average bus latency per DRAM burst
system.mem_ctrls.avgMemAccLat                39788.86                       # Average memory access latency per DRAM burst
system.mem_ctrls.numRdRetry                         0                       # Number of times read queue was full causing retry
system.mem_ctrls.numWrRetry                         0                       # Number of times write queue was full causing retry
system.mem_ctrls.readRowHits                    18947                       # Number of row buffer hits during reads
system.mem_ctrls.writeRowHits                   27849                       # Number of row buffer hits during writes
system.mem_ctrls.readRowHitRate                 40.62                       # Row buffer hit rate for reads
system.mem_ctrls.writeRowHitRate                74.00                       # Row buffer hit rate for writes
system.mem_ctrls.readPktSize::0                     0                       # Read request sizes (log2)
system.mem_ctrls.readPktSize::1                     0                       # Read request sizes (log2)
system.mem_ctrls.readPktSize::2                     0                       # Read request sizes (log2)
system.mem_ctrls.readPktSize::3                     0                       # Read request sizes (log2)
system.mem_ctrls.readPktSize::4                     0                       # Read request sizes (log2)
system.mem_ctrls.readPktSize::5                     0                       # Read request sizes (log2)
system.mem_ctrls.readPktSize::6                 46664                       # Read request sizes (log2)
system.mem_ctrls.writePktSize::0                    0                       # Write request sizes (log2)
system.mem_ctrls.writePktSize::1                    0                       # Write request sizes (log2)
system.mem_ctrls.writePktSize::2                    0                       # Write request sizes (log2)
system.mem_ctrls.writePktSize::3                    0                       # Write request sizes (log2)
system.mem_ctrls.writePktSize::4                    0                       # Write request sizes (log2)
system.mem_ctrls.writePktSize::5                    0                       # Write request sizes (log2)
system.mem_ctrls.writePktSize::6                37632                       # Write request sizes (log2)
system.mem_ctrls.rdQLenPdf::0                   44687                       # What read queue length does an incoming req see
system.mem_ctrls.rdQLenPdf::1                    1956                       # What read queue length does an incoming req see
system.mem_ctrls.rdQLenPdf::2                       6                       # What read queue length does an incoming req see
system.mem_ctrls.rdQLenPdf::3                       0                       # What read queue length does an incoming req see
system.mem_ctrls.rdQLenPdf::4                       0                       # What read queue length does an incoming req see
system.mem_ctrls.rdQLenPdf::5                       0                       # What read queue length does an incoming req see
system.mem_ctrls.rdQLenPdf::6                       0                       # What read queue length does an incoming req see
system.mem_ctrls.rdQLenPdf::7                       0                       # What read queue length does an incoming req see
system.mem_ctrls.rdQLenPdf::8                       0                       # What read queue length does an incoming req see
system.mem_ctrls.rdQLenPdf::9                       0                       # What read queue length does an incoming req see
system.mem_ctrls.rdQLenPdf::10                      0                       # What read queue length does an incoming req see
system.mem_ctrls.rdQLenPdf::11                      0                       # What read queue length does an incoming req see
system.mem_ctrls.rdQLenPdf::12                      0                       # What read queue length does an incoming req see
system.mem_ctrls.rdQLenPdf::13                      0                       # What read queue length does an incoming req see
system.mem_ctrls.rdQLenPdf::14                      0                       # What read queue length does an incoming req see
system.mem_ctrls.rdQLenPdf::15                      0                       # What read queue length does an incoming req see
system.mem_ctrls.rdQLenPdf::16                      0                       # What read queue length does an incoming req see
system.mem_ctrls.rdQLenPdf::17                      0                       # What read queue length does an incoming req see
system.mem_ctrls.rdQLenPdf::18                      0                       # What read queue length does an incoming req see
system.mem_ctrls.rdQLenPdf::19                      0                       # What read queue length does an incoming req see
system.mem_ctrls.rdQLenPdf::20                      0                       # What read queue length does an incoming req see
system.mem_ctrls.rdQLenPdf::21                      0                       # What read queue length does an incoming req see
system.mem_ctrls.rdQLenPdf::22                      0                       # What read queue length does an incoming req see
system.mem_ctrls.rdQLenPdf::23                      0                       # What read queue length does an incoming req see
system.mem_ctrls.rdQLenPdf::24                      0                       # What read queue length does an incoming req see
system.mem_ctrls.rdQLenPdf::25                      0                       # What read queue length does an incoming req see
system.mem_ctrls.rdQLenPdf::26                      0                       # What read queue length does an incoming req see
system.mem_ctrls.rdQLenPdf::27                      0                       # What read queue length does an incoming req see
system.mem_ctrls.rdQLenPdf::28                      0                       # What read queue length does an incoming req see
system.mem_ctrls.rdQLenPdf::29                      0                       # What read queue length does an incoming req see
system.mem_ctrls.rdQLenPdf::30                      0                       # What read queue length does an incoming req see
system.mem_ctrls.rdQLenPdf::31                      0                       # What read queue length does an incoming req see
system.mem_ctrls.wrQLenPdf::0                       1                       # What write queue length does an incoming req see
system.mem_ctrls.wrQLenPdf::1                       1                       # What write queue length does an incoming req see
system.mem_ctrls.wrQLenPdf::2                       1                       # What write queue length does an incoming req see
system.mem_ctrls.wrQLenPdf::3                       1                       # What write queue length does an incoming req see
system.mem_ctrls.wrQLenPdf::4                       1                       # What write queue length does an incoming req see
system.mem_ctrls.wrQLenPdf::5                       1                       # What write queue length does an incoming req see
system.mem_ctrls.wrQLenPdf::6                       1                       # What write queue length does an incoming req see
system.mem_ctrls.wrQLenPdf::7                       1                       # What write queue length does an incoming req see
system.mem_ctrls.wrQLenPdf::8                       1                       # What write queue length does an incoming req see
system.mem_ctrls.wrQLenPdf::9                       1                       # What write queue length does an incoming req see
system.mem_ctrls.wrQLenPdf::10                      1                       # What write queue length does an incoming req see
system.mem_ctrls.wrQLenPdf::11                      1                       # What write queue length does an incoming req see
system.mem_ctrls.wrQLenPdf::12                      1                       # What write queue length does an incoming req see
system.mem_ctrls.wrQLenPdf::13                      1                       # What write queue length does an incoming req see
system.mem_ctrls.wrQLenPdf::14                      1                       # What write queue length does an incoming req see
system.mem_ctrls.wrQLenPdf::15                   1830                       # What write queue length does an incoming req see
system.mem_ctrls.wrQLenPdf::16                   1833                       # What write queue length does an incoming req see
system.mem_ctrls.wrQLenPdf::17                   2109                       # What write queue length does an incoming req see
system.mem_ctrls.wrQLenPdf::18                   2118                       # What write queue length does an incoming req see
system.mem_ctrls.wrQLenPdf::19                   2113                       # What write queue length does an incoming req see
system.mem_ctrls.wrQLenPdf::20                   2123                       # What write queue length does an incoming req see
system.mem_ctrls.wrQLenPdf::21                   2117                       # What write queue length does an incoming req see
system.mem_ctrls.wrQLenPdf::22                   2131                       # What write queue length does an incoming req see
system.mem_ctrls.wrQLenPdf::23                   2131                       # What write queue length does an incoming req see
system.mem_ctrls.wrQLenPdf::24                   2131                       # What write queue length does an incoming req see
system.mem_ctrls.wrQLenPdf::25                   2126                       # What write queue length does an incoming req see
system.mem_ctrls.wrQLenPdf::26                   2115                       # What write queue length does an incoming req see
system.mem_ctrls.wrQLenPdf::27                   2133                       # What write queue length does an incoming req see
system.mem_ctrls.wrQLenPdf::28                   2146                       # What write queue length does an incoming req see
system.mem_ctrls.wrQLenPdf::29                   2122                       # What write queue length does an incoming req see
system.mem_ctrls.wrQLenPdf::30                   2115                       # What write queue length does an incoming req see
system.mem_ctrls.wrQLenPdf::31                   2112                       # What write queue length does an incoming req see
system.mem_ctrls.wrQLenPdf::32                   2111                       # What write queue length does an incoming req see
system.mem_ctrls.wrQLenPdf::33                      1                       # What write queue length does an incoming req see
system.mem_ctrls.wrQLenPdf::34                      0                       # What write queue length does an incoming req see
system.mem_ctrls.wrQLenPdf::35                      0                       # What write queue length does an incoming req see
system.mem_ctrls.wrQLenPdf::36                      0                       # What write queue length does an incoming req see
system.mem_ctrls.wrQLenPdf::37                      0                       # What write queue length does an incoming req see
system.mem_ctrls.wrQLenPdf::38                      0                       # What write queue length does an incoming req see
system.mem_ctrls.wrQLenPdf::39                      0                       # What write queue length does an incoming req see
system.mem_ctrls.wrQLenPdf::40                      0                       # What write queue length does an incoming req see
system.mem_ctrls.wrQLenPdf::41                      0                       # What write queue length does an incoming req see
system.mem_ctrls.wrQLenPdf::42                      0                       # What write queue length does an incoming req see
system.mem_ctrls.wrQLenPdf::43                      0                       # What write queue length does an incoming req see
system.mem_ctrls.wrQLenPdf::44                      0                       # What write queue length does an incoming req see
system.mem_ctrls.wrQLenPdf::45                      0                       # What write queue length does an incoming req see
system.mem_ctrls.wrQLenPdf::46                      0                       # What write queue length does an incoming req see
system.mem_ctrls.wrQLenPdf::47                      0                       # What write queue length does an incoming req see
system.mem_ctrls.wrQLenPdf::48                      0                       # What write queue length does an incoming req see
system.mem_ctrls.wrQLenPdf::49                      0                       # What write queue length does an incoming req see
system.mem_ctrls.wrQLenPdf::50                      0                       # What write queue length does an incoming req see
system.mem_ctrls.wrQLenPdf::51                      0                       # What write queue length does an incoming req see
system.mem_ctrls.wrQLenPdf::52                      0                       # What write queue length does an incoming req see
system.mem_ctrls.wrQLenPdf::53                      0                       # What write queue length does an incoming req see
system.mem_ctrls.wrQLenPdf::54                      0                       # What write queue length does an incoming req see
system.mem_ctrls.wrQLenPdf::55                      0                       # What write queue length does an incoming req see
system.mem_ctrls.wrQLenPdf::56                      0                       # What write queue length does an incoming req see
system.mem_ctrls.wrQLenPdf::57                      0                       # What write queue length does an incoming req see
system.mem_ctrls.wrQLenPdf::58                      0                       # What write queue length does an incoming req see
system.mem_ctrls.wrQLenPdf::59                      0                       # What write queue length does an incoming req see
system.mem_ctrls.wrQLenPdf::60                      0                       # What write queue length does an incoming req see
system.mem_ctrls.wrQLenPdf::61                      0                       # What write queue length does an incoming req see
system.mem_ctrls.wrQLenPdf::62                      0                       # What write queue length does an incoming req see
system.mem_ctrls.wrQLenPdf::63                      0                       # What write queue length does an incoming req see
system.mem_ctrls.bytesPerActivate::samples        37469                       # Bytes accessed per row activation
system.mem_ctrls.bytesPerActivate::mean    143.929542                       # Bytes accessed per row activation
system.mem_ctrls.bytesPerActivate::gmean   104.663852                       # Bytes accessed per row activation
system.mem_ctrls.bytesPerActivate::stdev   170.033161                       # Bytes accessed per row activation
system.mem_ctrls.bytesPerActivate::0-127        20886     55.74%     55.74% # Bytes accessed per row activation
system.mem_ctrls.bytesPerActivate::128-255        11840     31.60%     87.34% # Bytes accessed per row activation
system.mem_ctrls.bytesPerActivate::256-383         2238      5.97%     93.31% # Bytes accessed per row activation
system.mem_ctrls.bytesPerActivate::384-511          740      1.97%     95.29% # Bytes accessed per row activation
system.mem_ctrls.bytesPerActivate::512-639          345      0.92%     96.21% # Bytes accessed per row activation
system.mem_ctrls.bytesPerActivate::640-767          293      0.78%     96.99% # Bytes accessed per row activation
system.mem_ctrls.bytesPerActivate::768-895          292      0.78%     97.77% # Bytes accessed per row activation
system.mem_ctrls.bytesPerActivate::896-1023          378      1.01%     98.78% # Bytes accessed per row activation
system.mem_ctrls.bytesPerActivate::1024-1151          457      1.22%    100.00% # Bytes accessed per row activation
system.mem_ctrls.bytesPerActivate::total        37469                       # Bytes accessed per row activation
system.mem_ctrls.rdPerTurnAround::samples         2111                       # Reads before turning the bus around for writes
system.mem_ctrls.rdPerTurnAround::mean      22.098058                       # Reads before turning the bus around for writes
system.mem_ctrls.rdPerTurnAround::gmean     19.137804                       # Reads before turning the bus around for writes
system.mem_ctrls.rdPerTurnAround::stdev     88.835480                       # Reads before turning the bus around for writes
system.mem_ctrls.rdPerTurnAround::0-127          2107     99.81%     99.81% # Reads before turning the bus around for writes
system.mem_ctrls.rdPerTurnAround::256-383            2      0.09%     99.91% # Reads before turning the bus around for writes
[...]
system.cpu.icache.ReadReq_mshr_misses::.cpu.inst         1201                       # number of ReadReq MSHR misses
system.cpu.icache.ReadReq_mshr_misses::total         1201                       # number of ReadReq MSHR misses
system.cpu.icache.ReadReq_mshr_miss_latency::.cpu.inst     68973000                       # number of ReadReq MSHR miss cycles
system.cpu.icache.ReadReq_mshr_miss_latency::total     68973000                       # number of ReadReq MSHR miss cycles
system.cpu.icache.ReadReq_mshr_miss_rate::.cpu.inst     0.000042                       # mshr miss rate for ReadReq accesses
system.cpu.icache.ReadReq_mshr_miss_rate::total     0.000042                       # mshr miss rate for ReadReq accesses
system.cpu.icache.ReadReq_avg_mshr_miss_latency::.cpu.inst 57429.641965                       # average ReadReq mshr miss latency
system.cpu.icache.ReadReq_avg_mshr_miss_latency::total 57429.641965                       # average ReadReq mshr miss latency
system.cpu.icache.tags.pwrStateResidencyTicks::UNDEFINED 114488188000                       # Cumulative time (in ticks) in various power states
system.cpu.icache.tags.tagsinuse           442.467329                       # Cycle average of tags in use
system.cpu.icache.tags.total_refs            28671025                       # Total number of references to valid blocks.
system.cpu.icache.tags.sampled_refs              1201                       # Sample count of references to valid blocks.
system.cpu.icache.tags.avg_refs          23872.626978                       # Average number of references to valid blocks.
system.cpu.icache.tags.warmup_cycle            108000                       # Cycle when the warmup percentage was hit.
system.cpu.icache.tags.occ_blocks::.cpu.inst   442.467329                       # Average occupied blocks per requestor
system.cpu.icache.tags.occ_percent::.cpu.inst     0.432097                       # Average percentage of cache occupancy
system.cpu.icache.tags.occ_percent::total     0.432097                       # Average percentage of cache occupancy
system.cpu.icache.tags.occ_task_id_blocks::1024          443                       # Occupied blocks per task id
system.cpu.icache.tags.age_task_id_blocks_1024::3            5                       # Occupied blocks per task id
system.cpu.icache.tags.age_task_id_blocks_1024::4          438                       # Occupied blocks per task id
system.cpu.icache.tags.occ_task_id_percent::1024     0.432617                       # Percentage of cache occupancy per task id
system.cpu.icache.tags.tag_accesses          28672226                       # Number of tag accesses
system.cpu.icache.tags.data_accesses         28672226                       # Number of data accesses
system.cpu.dtb.walker.pwrStateResidencyTicks::UNDEFINED 114488188000                       # Cumulative time (in ticks) in various power states
system.cpu.dtb.stage2_mmu.stage2_tlb.walker.pwrStateResidencyTicks::UNDEFINED 114488188000                       # Cumulative time (in ticks) in various power states
system.cpu.dcache.pwrStateResidencyTicks::UNDEFINED 114488188000                       # Cumulative time (in ticks) in various power states
system.cpu.dcache.demand_hits::.cpu.data     35654869                       # number of demand (read+write) hits
system.cpu.dcache.demand_hits::total         35654869                       # number of demand (read+write) hits
system.cpu.dcache.overall_hits::.cpu.data     35658179                       # number of overall hits
system.cpu.dcache.overall_hits::total        35658179                       # number of overall hits
system.cpu.dcache.demand_misses::.cpu.data        82483                       # number of demand (read+write) misses
system.cpu.dcache.demand_misses::total          82483                       # number of demand (read+write) misses
system.cpu.dcache.overall_misses::.cpu.data        82534                       # number of overall misses
system.cpu.dcache.overall_misses::total         82534                       # number of overall misses
system.cpu.dcache.demand_miss_latency::.cpu.data   7170741000                       # number of demand (read+write) miss cycles
system.cpu.dcache.demand_miss_latency::total   7170741000                       # number of demand (read+write) miss cycles
system.cpu.dcache.overall_miss_latency::.cpu.data   7170741000                       # number of overall miss cycles
system.cpu.dcache.overall_miss_latency::total   7170741000                       # number of overall miss cycles
system.cpu.dcache.demand_accesses::.cpu.data     35737352                       # number of demand (read+write) accesses
system.cpu.dcache.demand_accesses::total     35737352                       # number of demand (read+write) accesses
system.cpu.dcache.overall_accesses::.cpu.data     35740713                       # number of overall (read+write) accesses
system.cpu.dcache.overall_accesses::total     35740713                       # number of overall (read+write) accesses
system.cpu.dcache.demand_miss_rate::.cpu.data     0.002308                       # miss rate for demand accesses
system.cpu.dcache.demand_miss_rate::total     0.002308                       # miss rate for demand accesses
system.cpu.dcache.overall_miss_rate::.cpu.data     0.002309                       # miss rate for overall accesses
system.cpu.dcache.overall_miss_rate::total     0.002309                       # miss rate for overall accesses
system.cpu.dcache.demand_avg_miss_latency::.cpu.data 86935.986809                       # average overall miss latency
system.cpu.dcache.demand_avg_miss_latency::total 86935.986809                       # average overall miss latency
system.cpu.dcache.overall_avg_miss_latency::.cpu.data 86882.266702                       # average overall miss latency
system.cpu.dcache.overall_avg_miss_latency::total 86882.266702                       # average overall miss latency
system.cpu.dcache.blocked_cycles::no_mshrs            0                       # number of cycles access was blocked
system.cpu.dcache.blocked_cycles::no_targets            0                       # number of cycles access was blocked
system.cpu.dcache.blocked::no_mshrs                 0                       # number of cycles access was blocked
system.cpu.dcache.blocked::no_targets               0                       # number of cycles access was blocked
system.cpu.dcache.avg_blocked_cycles::no_mshrs          nan                       # average number of cycles each access was blocked
system.cpu.dcache.avg_blocked_cycles::no_targets          nan                       # average number of cycles each access was blocked
system.cpu.dcache.writebacks::.writebacks        51911                       # number of writebacks
system.cpu.dcache.writebacks::total             51911                       # number of writebacks
system.cpu.dcache.demand_mshr_hits::.cpu.data        23140                       # number of demand (read+write) MSHR hits
system.cpu.dcache.demand_mshr_hits::total        23140                       # number of demand (read+write) MSHR hits
system.cpu.dcache.overall_mshr_hits::.cpu.data        23140                       # number of overall MSHR hits
system.cpu.dcache.overall_mshr_hits::total        23140                       # number of overall MSHR hits
system.cpu.dcache.demand_mshr_misses::.cpu.data        59343                       # number of demand (read+write) MSHR misses
system.cpu.dcache.demand_mshr_misses::total        59343                       # number of demand (read+write) MSHR misses
system.cpu.dcache.overall_mshr_misses::.cpu.data        59389                       # number of overall MSHR misses
system.cpu.dcache.overall_mshr_misses::total        59389                       # number of overall MSHR misses
system.cpu.dcache.demand_mshr_miss_latency::.cpu.data   5590356000                       # number of demand (read+write) MSHR miss cycles
system.cpu.dcache.demand_mshr_miss_latency::total   5590356000                       # number of demand (read+write) MSHR miss cycles
system.cpu.dcache.overall_mshr_miss_latency::.cpu.data   5593418000                       # number of overall MSHR miss cycles
system.cpu.dcache.overall_mshr_miss_latency::total   5593418000                       # number of overall MSHR miss cycles
system.cpu.dcache.demand_mshr_miss_rate::.cpu.data     0.001661                       # mshr miss rate for demand accesses
system.cpu.dcache.demand_mshr_miss_rate::total     0.001661                       # mshr miss rate for demand accesses
system.cpu.dcache.overall_mshr_miss_rate::.cpu.data     0.001662                       # mshr miss rate for overall accesses
system.cpu.dcache.overall_mshr_miss_rate::total     0.001662                       # mshr miss rate for overall accesses
system.cpu.dcache.demand_avg_mshr_miss_latency::.cpu.data 94204.135281                       # average overall mshr miss latency
system.cpu.dcache.demand_avg_mshr_miss_latency::total 94204.135281                       # average overall mshr miss latency
system.cpu.dcache.overall_avg_mshr_miss_latency::.cpu.data 94182.727441                       # average overall mshr miss latency
system.cpu.dcache.overall_avg_mshr_miss_latency::total 94182.727441                       # average overall mshr miss latency
system.cpu.dcache.replacements                  58877                       # number of replacements
system.cpu.dcache.ReadReq_hits::.cpu.data     21455473                       # number of ReadReq hits
system.cpu.dcache.ReadReq_hits::total        21455473                       # number of ReadReq hits
system.cpu.dcache.ReadReq_misses::.cpu.data        27128                       # number of ReadReq misses
system.cpu.dcache.ReadReq_misses::total         27128                       # number of ReadReq misses
system.cpu.dcache.ReadReq_miss_latency::.cpu.data   1426509000                       # number of ReadReq miss cycles
system.cpu.dcache.ReadReq_miss_latency::total   1426509000                       # number of ReadReq miss cycles
system.cpu.dcache.ReadReq_accesses::.cpu.data     21482601                       # number of ReadReq accesses(hits+misses)
system.cpu.dcache.ReadReq_accesses::total     21482601                       # number of ReadReq accesses(hits+misses)
system.cpu.dcache.ReadReq_miss_rate::.cpu.data     0.001263                       # miss rate for ReadReq accesses
system.cpu.dcache.ReadReq_miss_rate::total     0.001263                       # miss rate for ReadReq accesses
system.cpu.dcache.ReadReq_avg_miss_latency::.cpu.data 52584.377765                       # average ReadReq miss latency
system.cpu.dcache.ReadReq_avg_miss_latency::total 52584.377765                       # average ReadReq miss latency
system.cpu.dcache.ReadReq_mshr_hits::.cpu.data         6608                       # number of ReadReq MSHR hits
system.cpu.dcache.ReadReq_mshr_hits::total         6608                       # number of ReadReq MSHR hits
system.cpu.dcache.ReadReq_mshr_misses::.cpu.data        20520                       # number of ReadReq MSHR misses
system.cpu.dcache.ReadReq_mshr_misses::total        20520                       # number of ReadReq MSHR misses
system.cpu.dcache.ReadReq_mshr_miss_latency::.cpu.data   1175885000                       # number of ReadReq MSHR miss cycles
system.cpu.dcache.ReadReq_mshr_miss_latency::total   1175885000                       # number of ReadReq MSHR miss cycles
system.cpu.dcache.ReadReq_mshr_miss_rate::.cpu.data     0.000955                       # mshr miss rate for ReadReq accesses
system.cpu.dcache.ReadReq_mshr_miss_rate::total     0.000955                       # mshr miss rate for ReadReq accesses
system.cpu.dcache.ReadReq_avg_mshr_miss_latency::.cpu.data 57304.337232                       # average ReadReq mshr miss latency
system.cpu.dcache.ReadReq_avg_mshr_miss_latency::total 57304.337232                       # average ReadReq mshr miss latency
system.cpu.dcache.WriteReq_hits::.cpu.data     14199396                       # number of WriteReq hits
system.cpu.dcache.WriteReq_hits::total       14199396                       # number of WriteReq hits
system.cpu.dcache.WriteReq_misses::.cpu.data        55355                       # number of WriteReq misses
system.cpu.dcache.WriteReq_misses::total        55355                       # number of WriteReq misses
system.cpu.dcache.WriteReq_miss_latency::.cpu.data   5744232000                       # number of WriteReq miss cycles
system.cpu.dcache.WriteReq_miss_latency::total   5744232000                       # number of WriteReq miss cycles
system.cpu.dcache.WriteReq_accesses::.cpu.data     14254751                       # number of WriteReq accesses(hits+misses)
system.cpu.dcache.WriteReq_accesses::total     14254751                       # number of WriteReq accesses(hits+misses)
system.cpu.dcache.WriteReq_miss_rate::.cpu.data     0.003883                       # miss rate for WriteReq accesses
system.cpu.dcache.WriteReq_miss_rate::total     0.003883                       # miss rate for WriteReq accesses
system.cpu.dcache.WriteReq_avg_miss_latency::.cpu.data 103770.788547                       # average WriteReq miss latency
system.cpu.dcache.WriteReq_avg_miss_latency::total 103770.788547                       # average WriteReq miss latency
system.cpu.dcache.WriteReq_mshr_hits::.cpu.data        16532                       # number of WriteReq MSHR hits
system.cpu.dcache.WriteReq_mshr_hits::total        16532                       # number of WriteReq MSHR hits
system.cpu.dcache.WriteReq_mshr_misses::.cpu.data        38823                       # number of WriteReq MSHR misses
system.cpu.dcache.WriteReq_mshr_misses::total        38823                       # number of WriteReq MSHR misses
system.cpu.dcache.WriteReq_mshr_miss_latency::.cpu.data   4414471000                       # number of WriteReq MSHR miss cycles
system.cpu.dcache.WriteReq_mshr_miss_latency::total   4414471000                       # number of WriteReq MSHR miss cycles
system.cpu.dcache.WriteReq_mshr_miss_rate::.cpu.data     0.002724                       # mshr miss rate for WriteReq accesses
system.cpu.dcache.WriteReq_mshr_miss_rate::total     0.002724                       # mshr miss rate for WriteReq accesses
system.cpu.dcache.WriteReq_avg_mshr_miss_latency::.cpu.data 113707.621771                       # average WriteReq mshr miss latency
system.cpu.dcache.WriteReq_avg_mshr_miss_latency::total 113707.621771                       # average WriteReq mshr miss latency
system.cpu.dcache.SoftPFReq_hits::.cpu.data         3310                       # number of SoftPFReq hits
system.cpu.dcache.SoftPFReq_hits::total          3310                       # number of SoftPFReq hits
system.cpu.dcache.SoftPFReq_misses::.cpu.data           51                       # number of SoftPFReq misses
system.cpu.dcache.SoftPFReq_misses::total           51                       # number of SoftPFReq misses
system.cpu.dcache.SoftPFReq_accesses::.cpu.data         3361                       # number of SoftPFReq accesses(hits+misses)
system.cpu.dcache.SoftPFReq_accesses::total         3361                       # number of SoftPFReq accesses(hits+misses)
system.cpu.dcache.SoftPFReq_miss_rate::.cpu.data     0.015174                       # miss rate for SoftPFReq accesses
system.cpu.dcache.SoftPFReq_miss_rate::total     0.015174                       # miss rate for SoftPFReq accesses
system.cpu.dcache.SoftPFReq_mshr_misses::.cpu.data           46                       # number of SoftPFReq MSHR misses
system.cpu.dcache.SoftPFReq_mshr_misses::total           46                       # number of SoftPFReq MSHR misses
system.cpu.dcache.SoftPFReq_mshr_miss_latency::.cpu.data      3062000                       # number of SoftPFReq MSHR miss cycles
system.cpu.dcache.SoftPFReq_mshr_miss_latency::total      3062000                       # number of SoftPFReq MSHR miss cycles
system.cpu.dcache.SoftPFReq_mshr_miss_rate::.cpu.data     0.013686                       # mshr miss rate for SoftPFReq accesses
system.cpu.dcache.SoftPFReq_mshr_miss_rate::total     0.013686                       # mshr miss rate for SoftPFReq accesses
system.cpu.dcache.SoftPFReq_avg_mshr_miss_latency::.cpu.data 66565.217391                       # average SoftPFReq mshr miss latency
system.cpu.dcache.SoftPFReq_avg_mshr_miss_latency::total 66565.217391                       # average SoftPFReq mshr miss latency
system.cpu.dcache.LoadLockedReq_hits::.cpu.data        89082                       # number of LoadLockedReq hits
system.cpu.dcache.LoadLockedReq_hits::total        89082                       # number of LoadLockedReq hits
system.cpu.dcache.LoadLockedReq_accesses::.cpu.data        89082                       # number of LoadLockedReq accesses(hits+misses)
system.cpu.dcache.LoadLockedReq_accesses::total        89082                       # number of LoadLockedReq accesses(hits+misses)
system.cpu.dcache.StoreCondReq_hits::.cpu.data        89082                       # number of StoreCondReq hits
system.cpu.dcache.StoreCondReq_hits::total        89082                       # number of StoreCondReq hits
system.cpu.dcache.StoreCondReq_accesses::.cpu.data        89082                       # number of StoreCondReq accesses(hits+misses)
system.cpu.dcache.StoreCondReq_accesses::total        89082                       # number of StoreCondReq accesses(hits+misses)
system.cpu.dcache.tags.pwrStateResidencyTicks::UNDEFINED 114488188000                       # Cumulative time (in ticks) in various power states
system.cpu.dcache.tags.tagsinuse           511.376663                       # Cycle average of tags in use
system.cpu.dcache.tags.total_refs            35895732                       # Total number of references to valid blocks.
system.cpu.dcache.tags.sampled_refs             59389                       # Sample count of references to valid blocks.
system.cpu.dcache.tags.avg_refs            604.417182                       # Average number of references to valid blocks.
system.cpu.dcache.tags.warmup_cycle            240000                       # Cycle when the warmup percentage was hit.
system.cpu.dcache.tags.occ_blocks::.cpu.data   511.376663                       # Average occupied blocks per requestor
system.cpu.dcache.tags.occ_percent::.cpu.data     0.998783                       # Average percentage of cache occupancy
system.cpu.dcache.tags.occ_percent::total     0.998783                       # Average percentage of cache occupancy
system.cpu.dcache.tags.occ_task_id_blocks::1024          512                       # Occupied blocks per task id
system.cpu.dcache.tags.age_task_id_blocks_1024::0            4                       # Occupied blocks per task id
system.cpu.dcache.tags.age_task_id_blocks_1024::1           37                       # Occupied blocks per task id
system.cpu.dcache.tags.age_task_id_blocks_1024::2          315                       # Occupied blocks per task id
system.cpu.dcache.tags.age_task_id_blocks_1024::3          119                       # Occupied blocks per task id
system.cpu.dcache.tags.age_task_id_blocks_1024::4           37                       # Occupied blocks per task id
system.cpu.dcache.tags.occ_task_id_percent::1024            1                       # Percentage of cache occupancy per task id
system.cpu.dcache.tags.tag_accesses         143734897                       # Number of tag accesses
system.cpu.dcache.tags.data_accesses        143734897                       # Number of data accesses
system.cpu.itb.walker.pwrStateResidencyTicks::UNDEFINED 114488188000                       # Cumulative time (in ticks) in various power states
system.cpu.itb.stage2_mmu.stage2_tlb.walker.pwrStateResidencyTicks::UNDEFINED 114488188000                       # Cumulative time (in ticks) in various power states

---------- End Simulation Statistics   ----------
