
---------- Begin Simulation Statistics ----------
final_tick                               114540392000                       # Number of ticks from beginning of simulation (restored from checkpoints and never reset)
host_inst_rate                                 348936                       # Simulator instruction rate (inst/s)
host_mem_usage                                 683484                       # Number of bytes of host memory used
host_op_rate                                   381847                       # Simulator op (including micro ops) rate (op/s)
host_seconds                                   286.59                       # Real time elapsed on the host
host_tick_rate                              399672620                       # Simulator tick rate (ticks/s)
sim_freq                                 1000000000000                       # Frequency of simulated ticks
sim_insts                                   100000001                       # Number of instructions simulated
sim_ops                                     109431937                       # Number of ops (including micro ops) simulated
sim_seconds                                  0.114540                       # Number of seconds simulated
sim_ticks                                114540392000                       # Number of ticks simulated
system.cpu.branchPred.BTBCorrect                    0                       # Number of correct BTB predictions (this stat may not work properly.
system.cpu.branchPred.BTBHitPct             87.597091                       # BTB Hit Percentage
system.cpu.branchPred.BTBHits                 8748155                       # Number of BTB hits
system.cpu.branchPred.BTBLookups              9986810                       # Number of BTB lookups
system.cpu.branchPred.RASInCorrect                348                       # Number of incorrect RAS predictions.
system.cpu.branchPred.condIncorrect            155024                       # Number of conditional branches incorrect
system.cpu.branchPred.condPredicted          16528374                       # Number of conditional branches predicted
system.cpu.branchPred.indirectHits             300026                       # Number of indirect target hits.
system.cpu.branchPred.indirectLookups          540257                       # Number of indirect predictor lookups.
system.cpu.branchPred.indirectMisses           240231                       # Number of indirect misses.
system.cpu.branchPred.lookups                20635798                       # Number of BP lookups
system.cpu.branchPred.usedRAS                 1050692                       # Number of times the RAS was used to get a target.
system.cpu.branchPredindirectMispredicted         1210                       # Number of mispredicted indirect branches.
system.cpu.committedInsts                   100000001                       # Number of instructions committed
system.cpu.committedOps                     109431937                       # Number of ops (including micro ops) committed
system.cpu.cpi                               1.145404                       # CPI: cycles per instruction
system.cpu.discardedOps                        732375                       # Number of ops (including micro ops) which were discarded before commit
system.cpu.dtb.accesses                             0                       # DTB accesses
system.cpu.dtb.align_faults                         0                       # Number of TLB faults due to alignment restrictions
system.cpu.dtb.domain_faults                        0                       # Number of TLB faults due to domain restrictions
system.cpu.dtb.flush_entries                        0                       # Number of entries that have been flushed from TLB
system.cpu.dtb.flush_tlb                            0                       # Number of times complete TLB was flushed
system.cpu.dtb.flush_tlb_asid                       0                       # Number of times TLB was flushed by ASID
system.cpu.dtb.flush_tlb_mva                        0                       # Number of times TLB was flushed by MVA
system.cpu.dtb.flush_tlb_mva_asid                   0                       # Number of times TLB was flushed by MVA & ASID
system.cpu.dtb.hits                                 0                       # DTB hits
system.cpu.dtb.inst_accesses                        0                       # ITB inst accesses
system.cpu.dtb.inst_hits                            0                       # ITB inst hits
system.cpu.dtb.inst_misses                          0                       # ITB inst misses
system.cpu.dtb.misses                               0                       # DTB misses
system.cpu.dtb.perms_faults                         0                       # Number of TLB faults due to permissions restrictions
system.cpu.dtb.prefetch_faults                      0                       # Number of TLB faults due to prefetch
system.cpu.dtb.read_accesses                        0                       # DTB read accesses
system.cpu.dtb.read_hits                            0                       # DTB read hits
system.cpu.dtb.read_misses                          0                       # DTB read misses
system.cpu.dtb.stage2_mmu.stage2_tlb.accesses            0                       # DTB accesses
system.cpu.dtb.stage2_mmu.stage2_tlb.align_faults            0                       # Number of TLB faults due to alignment restrictions
system.cpu.dtb.stage2_mmu.stage2_tlb.domain_faults            0                       # Number of TLB faults due to domain restrictions
system.cpu.dtb.stage2_mmu.stage2_tlb.flush_entries            0                       # Number of entries that have been flushed from TLB
system.cpu.dtb.stage2_mmu.stage2_tlb.flush_tlb            0                       # Number of times complete TLB was flushed
system.cpu.dtb.stage2_mmu.stage2_tlb.flush_tlb_asid            0                       # Number of times TLB was flushed by ASID
system.cpu.dtb.stage2_mmu.stage2_tlb.flush_tlb_mva            0                       # Number of times TLB was flushed by MVA
system.cpu.dtb.stage2_mmu.stage2_tlb.flush_tlb_mva_asid            0                       # Number of times TLB was flushed by MVA & ASID
system.cpu.dtb.stage2_mmu.stage2_tlb.hits            0                       # DTB hits
system.cpu.dtb.stage2_mmu.stage2_tlb.inst_accesses            0                       # ITB inst accesses
system.cpu.dtb.stage2_mmu.stage2_tlb.inst_hits            0                       # ITB inst hits
system.cpu.dtb.stage2_mmu.stage2_tlb.inst_misses            0                       # ITB inst misses
system.cpu.dtb.stage2_mmu.stage2_tlb.misses            0                       # DTB misses
system.cpu.dtb.stage2_mmu.stage2_tlb.perms_faults            0                       # Number of TLB faults due to permissions restrictions
system.cpu.dtb.stage2_mmu.stage2_tlb.prefetch_faults            0                       # Number of TLB faults due to prefetch
system.cpu.dtb.stage2_mmu.stage2_tlb.read_accesses            0                       # DTB read accesses
system.cpu.dtb.stage2_mmu.stage2_tlb.read_hits            0                       # DTB read hits
system.cpu.dtb.stage2_mmu.stage2_tlb.read_misses            0                       # DTB read misses
system.cpu.dtb.stage2_mmu.stage2_tlb.walker.walkRequestOrigin_Requested::Data            0                       # Table walker requests started/completed, data/inst
system.cpu.dtb.stage2_mmu.stage2_tlb.walker.walkRequestOrigin_Requested::Inst            0                       # Table walker requests started/completed, data/inst
system.cpu.dtb.stage2_mmu.stage2_tlb.walker.walkRequestOrigin_Requested::total            0                       # Table walker requests started/completed, data/inst
system.cpu.dtb.stage2_mmu.stage2_tlb.walker.walkRequestOrigin_Completed::Data            0                       # Table walker requests started/completed, data/inst
system.cpu.dtb.stage2_mmu.stage2_tlb.walker.walkRequestOrigin_Completed::Inst            0                       # Table walker requests started/completed, data/inst
system.cpu.dtb.stage2_mmu.stage2_tlb.walker.walkRequestOrigin_Completed::total            0                       # Table walker requests started/completed, data/inst
system.cpu.dtb.stage2_mmu.stage2_tlb.walker.walkRequestOrigin::total            0                       # Table walker requests started/completed, data/inst
system.cpu.dtb.stage2_mmu.stage2_tlb.walker.walks            0                       # Table walker walks requested
system.cpu.dtb.stage2_mmu.stage2_tlb.write_accesses            0                       # DTB write accesses
system.cpu.dtb.stage2_mmu.stage2_tlb.write_hits            0                       # DTB write hits
system.cpu.dtb.stage2_mmu.stage2_tlb.write_misses            0                       # DTB write misses
system.cpu.dtb.walker.walkRequestOrigin_Requested::Data            0                       # Table walker requests started/completed, data/inst
system.cpu.dtb.walker.walkRequestOrigin_Requested::Inst            0                       # Table walker requests started/completed, data/inst
system.cpu.dtb.walker.walkRequestOrigin_Requested::total            0                       # Table walker requests started/completed, data/inst
system.cpu.dtb.walker.walkRequestOrigin_Completed::Data            0                       # Table walker requests started/completed, data/inst
system.cpu.dtb.walker.walkRequestOrigin_Completed::Inst            0                       # Table walker requests started/completed, data/inst
system.cpu.dtb.walker.walkRequestOrigin_Completed::total            0                       # Table walker requests started/completed, data/inst
system.cpu.dtb.walker.walkRequestOrigin::total            0                       # Table walker requests started/completed, data/inst
system.cpu.dtb.walker.walks                         0                       # Table walker walks requested
system.cpu.dtb.write_accesses                       0                       # DTB write accesses
system.cpu.dtb.write_hits                           0                       # DTB write hits
system.cpu.dtb.write_misses                         0                       # DTB write misses
system.cpu.fetch2.amo_instructions                  0                       # Number of memory atomic instructions successfully decoded
system.cpu.fetch2.fp_instructions                   0                       # Number of floating point instructions successfully decoded
system.cpu.fetch2.int_instructions           49964868                       # Number of integer instructions successfully decoded
system.cpu.fetch2.load_instructions          17199433                       # Number of memory load instructions successfully decoded
system.cpu.fetch2.store_instructions         10036418                       # Number of memory store instructions successfully decoded
system.cpu.fetch2.vec_instructions                  0                       # Number of SIMD instructions successfully decoded
system.cpu.idleCycles                         3845950                       # Total number of cycles that the object has spent stopped
system.cpu.ipc                               0.873054                       # IPC: instructions per cycle
system.cpu.itb.accesses                             0                       # DTB accesses
system.cpu.itb.align_faults                         0                       # Number of TLB faults due to alignment restrictions
system.cpu.itb.domain_faults                        0                       # Number of TLB faults due to domain restrictions
system.cpu.itb.flush_entries                        0                       # Number of entries that have been flushed from TLB
system.cpu.itb.flush_tlb                            0                       # Number of times complete TLB was flushed
system.cpu.itb.flush_tlb_asid                       0                       # Number of times TLB was flushed by ASID
system.cpu.itb.flush_tlb_mva                        0                       # Number of times TLB was flushed by MVA
system.cpu.itb.flush_tlb_mva_asid                   0                       # Number of times TLB was flushed by MVA & ASID
system.cpu.itb.hits                                 0                       # DTB hits
system.cpu.itb.inst_accesses                        0                       # ITB inst accesses
system.cpu.itb.inst_hits                            0                       # ITB inst hits
system.cpu.itb.inst_misses                          0                       # ITB inst misses
system.cpu.itb.misses                               0                       # DTB misses
system.cpu.itb.perms_faults                         0                       # Number of TLB faults due to permissions restrictions
system.cpu.itb.prefetch_faults                      0                       # Number of TLB faults due to prefetch
system.cpu.itb.read_accesses                        0                       # DTB read accesses
system.cpu.itb.read_hits                            0                       # DTB read hits
system.cpu.itb.read_misses                          0                       # DTB read misses
system.cpu.itb.stage2_mmu.stage2_tlb.accesses            0                       # DTB accesses
system.cpu.itb.stage2_mmu.stage2_tlb.align_faults            0                       # Number of TLB faults due to alignment restrictions
system.cpu.itb.stage2_mmu.stage2_tlb.domain_faults            0                       # Number of TLB faults due to domain restrictions
system.cpu.itb.stage2_mmu.stage2_tlb.flush_entries            0                       # Number of entries that have been flushed from TLB
system.cpu.itb.stage2_mmu.stage2_tlb.flush_tlb            0                       # Number of times complete TLB was flushed
system.cpu.itb.stage2_mmu.stage2_tlb.flush_tlb_asid            0                       # Number of times TLB was flushed by ASID
system.cpu.itb.stage2_mmu.stage2_tlb.flush_tlb_mva            0                       # Number of times TLB was flushed by MVA
system.cpu.itb.stage2_mmu.stage2_tlb.flush_tlb_mva_asid            0                       # Number of times TLB was flushed by MVA & ASID
system.cpu.itb.stage2_mmu.stage2_tlb.hits            0                       # DTB hits
system.cpu.itb.stage2_mmu.stage2_tlb.inst_accesses            0                       # ITB inst accesses
system.cpu.itb.stage2_mmu.stage2_tlb.inst_hits            0                       # ITB inst hits
system.cpu.itb.stage2_mmu.stage2_tlb.inst_misses            0                       # ITB inst misses
system.cpu.itb.stage2_mmu.stage2_tlb.misses            0                       # DTB misses
system.cpu.itb.stage2_mmu.stage2_tlb.perms_faults            0                       # Number of TLB faults due to permissions restrictions
system.cpu.itb.stage2_mmu.stage2_tlb.prefetch_faults            0                       # Number of TLB faults due to prefetch
system.cpu.itb.stage2_mmu.stage2_tlb.read_accesses            0                       # DTB read accesses
system.cpu.itb.stage2_mmu.stage2_tlb.read_hits            0                       # DTB read hits
system.cpu.itb.stage2_mmu.stage2_tlb.read_misses            0                       # DTB read misses
system.cpu.itb.stage2_mmu.stage2_tlb.walker.walkRequestOrigin_Requested::Data            0                       # Table walker requests started/completed, data/inst
system.cpu.itb.stage2_mmu.stage2_tlb.walker.walkRequestOrigin_Requested::Inst            0                       # Table walker requests started/completed, data/inst
system.cpu.itb.stage2_mmu.stage2_tlb.walker.walkRequestOrigin_Requested::total            0                       # Table walker requests started/completed, data/inst
system.cpu.itb.stage2_mmu.stage2_tlb.walker.walkRequestOrigin_Completed::Data            0                       # Table walker requests started/completed, data/inst
system.cpu.itb.stage2_mmu.stage2_tlb.walker.walkRequestOrigin_Completed::Inst            0                       # Table walker requests started/completed, data/inst
system.cpu.itb.stage2_mmu.stage2_tlb.walker.walkRequestOrigin_Completed::total            0                       # Table walker requests started/completed, data/inst
system.cpu.itb.stage2_mmu.stage2_tlb.walker.walkRequestOrigin::total            0                       # Table walker requests started/completed, data/inst
system.cpu.itb.stage2_mmu.stage2_tlb.walker.walks            0                       # Table walker walks requested
system.cpu.itb.stage2_mmu.stage2_tlb.write_accesses            0                       # DTB write accesses
system.cpu.itb.stage2_mmu.stage2_tlb.write_hits            0                       # DTB write hits
system.cpu.itb.stage2_mmu.stage2_tlb.write_misses            0                       # DTB write misses
system.cpu.itb.walker.walkRequestOrigin_Requested::Data            0                       # Table walker requests started/completed, data/inst
system.cpu.itb.walker.walkRequestOrigin_Requested::Inst            0                       # Table walker requests started/completed, data/inst
system.cpu.itb.walker.walkRequestOrigin_Requested::total            0                       # Table walker requests started/completed, data/inst
system.cpu.itb.walker.walkRequestOrigin_Completed::Data            0                       # Table walker requests started/completed, data/inst
system.cpu.itb.walker.walkRequestOrigin_Completed::Inst            0                       # Table walker requests started/completed, data/inst
system.cpu.itb.walker.walkRequestOrigin_Completed::total            0                       # Table walker requests started/completed, data/inst
system.cpu.itb.walker.walkRequestOrigin::total            0                       # Table walker requests started/completed, data/inst
system.cpu.itb.walker.walks                         0                       # Table walker walks requested
system.cpu.itb.write_accesses                       0                       # DTB write accesses
system.cpu.itb.write_hits                           0                       # DTB write hits
system.cpu.itb.write_misses                         0                       # DTB write misses
system.cpu.numCycles                        114540392                       # number of cpu cycles simulated
system.cpu.numFetchSuspends                         0                       # Number of times Execute suspended instruction fetching
system.cpu.numWorkItemsCompleted                    0                       # number of work items this cpu completed
system.cpu.numWorkItemsStarted                      0                       # number of work items this cpu started
system.cpu.op_class_0::No_OpClass                   0      0.00%      0.00% # Class of committed instruction
system.cpu.op_class_0::IntAlu                72955303     66.67%     66.67% # Class of committed instruction
system.cpu.op_class_0::IntMult                 568365      0.52%     67.19% # Class of committed instruction
system.cpu.op_class_0::IntDiv                       0      0.00%     67.19% # Class of committed instruction
system.cpu.op_class_0::FloatAdd                     0      0.00%     67.19% # Class of committed instruction
system.cpu.op_class_0::FloatCmp                     0      0.00%     67.19% # Class of committed instruction
system.cpu.op_class_0::FloatCvt                     0      0.00%     67.19% # Class of committed instruction
system.cpu.op_class_0::FloatMult                    0      0.00%     67.19% # Class of committed instruction
system.cpu.op_class_0::FloatMultAcc                 0      0.00%     67.19% # Class of committed instruction
system.cpu.op_class_0::FloatDiv                     0      0.00%     67.19% # Class of committed instruction
system.cpu.op_class_0::FloatMisc                    0      0.00%     67.19% # Class of committed instruction
system.cpu.op_class_0::FloatSqrt                    0      0.00%     67.19% # Class of committed instruction
system.cpu.op_class_0::SimdAdd                 241252      0.22%     67.41% # Class of committed instruction
system.cpu.op_class_0::SimdAddAcc                   0      0.00%     67.41% # Class of committed instruction
system.cpu.op_class_0::SimdAlu                 154720      0.14%     67.55% # Class of committed instruction
system.cpu.op_class_0::SimdCmp                 120626      0.11%     67.66% # Class of committed instruction
system.cpu.op_class_0::SimdCvt                      0      0.00%     67.66% # Class of committed instruction
system.cpu.op_class_0::SimdMisc                 44544      0.04%     67.70% # Class of committed instruction
system.cpu.op_class_0::SimdMult                     0      0.00%     67.70% # Class of committed instruction
system.cpu.op_class_0::SimdMultAcc                  0      0.00%     67.70% # Class of committed instruction
system.cpu.op_class_0::SimdShift                    0      0.00%     67.70% # Class of committed instruction
system.cpu.op_class_0::SimdShiftAcc                 0      0.00%     67.70% # Class of committed instruction
system.cpu.op_class_0::SimdDiv                      0      0.00%     67.70% # Class of committed instruction
system.cpu.op_class_0::SimdSqrt                     0      0.00%     67.70% # Class of committed instruction
system.cpu.op_class_0::SimdFloatAdd                 0      0.00%     67.70% # Class of committed instruction
system.cpu.op_class_0::SimdFloatAlu                 0      0.00%     67.70% # Class of committed instruction
system.cpu.op_class_0::SimdFloatCmp                 0      0.00%     67.70% # Class of committed instruction
system.cpu.op_class_0::SimdFloatCvt                 0      0.00%     67.70% # Class of committed instruction
system.cpu.op_class_0::SimdFloatDiv                 0      0.00%     67.70% # Class of committed instruction
system.cpu.op_class_0::SimdFloatMisc           166465      0.15%     67.85% # Class of committed instruction
system.cpu.op_class_0::SimdFloatMult                0      0.00%     67.85% # Class of committed instruction
system.cpu.op_class_0::SimdFloatMultAcc             0      0.00%     67.85% # Class of committed instruction
system.cpu.op_class_0::SimdFloatSqrt                0      0.00%     67.85% # Class of committed instruction
system.cpu.op_class_0::SimdReduceAdd                0      0.00%     67.85% # Class of committed instruction
system.cpu.op_class_0::SimdReduceAlu                0      0.00%     67.85% # Class of committed instruction
system.cpu.op_class_0::SimdReduceCmp                0      0.00%     67.85% # Class of committed instruction
system.cpu.op_class_0::SimdFloatReduceAdd            0      0.00%     67.85% # Class of committed instruction
system.cpu.op_class_0::SimdFloatReduceCmp            0      0.00%     67.85% # Class of committed instruction
system.cpu.op_class_0::SimdAes                      0      0.00%     67.85% # Class of committed instruction
system.cpu.op_class_0::SimdAesMix                   0      0.00%     67.85% # Class of committed instruction
system.cpu.op_class_0::SimdSha1Hash                 0      0.00%     67.85% # Class of committed instruction
system.cpu.op_class_0::SimdSha1Hash2                0      0.00%     67.85% # Class of committed instruction
system.cpu.op_class_0::SimdSha256Hash               0      0.00%     67.85% # Class of committed instruction
system.cpu.op_class_0::SimdSha256Hash2              0      0.00%     67.85% # Class of committed instruction
system.cpu.op_class_0::SimdShaSigma2                0      0.00%     67.85% # Class of committed instruction
system.cpu.op_class_0::SimdShaSigma3                0      0.00%     67.85% # Class of committed instruction
system.cpu.op_class_0::SimdPredAlu                  0      0.00%     67.85% # Class of committed instruction
system.cpu.op_class_0::MemRead               20646465     18.87%     86.72% # Class of committed instruction
system.cpu.op_class_0::MemWrite              14534197     13.28%    100.00% # Class of committed instruction
system.cpu.op_class_0::FloatMemRead                 0      0.00%    100.00% # Class of committed instruction
system.cpu.op_class_0::FloatMemWrite                0      0.00%    100.00% # Class of committed instruction
system.cpu.op_class_0::IprAccess                    0      0.00%    100.00% # Class of committed instruction
system.cpu.op_class_0::InstPrefetch                 0      0.00%    100.00% # Class of committed instruction
system.cpu.op_class_0::total                109431937                       # Class of committed instruction
system.cpu.tickCycles                       110694442                       # Number of cycles that the object actually ticked
system.cpu.workload.numSyscalls                    86                       # Number of system calls
system.membus.snoop_filter.hit_multi_requests            0                       # Number of requests hitting in the snoop filter with multiple (>1) holders of the requested data.
system.membus.snoop_filter.hit_multi_snoops            0                       # Number of snoops hitting in the snoop filter with multiple (>1) holders of the requested data.
system.membus.snoop_filter.hit_single_requests        38061                       # Number of requests hitting in the snoop filter with a single holder of the requested data.
system.membus.snoop_filter.hit_single_snoops            0                       # Number of snoops hitting in the snoop filter with a single holder of the requested data.
system.membus.snoop_filter.tot_requests         84755                       # Total number of requests made to the snoop filter.
system.membus.snoop_filter.tot_snoops               0                       # Total number of snoops made to the snoop filter.
system.tol2bus.snoop_filter.hit_multi_requests           43                       # Number of requests hitting in the snoop filter with multiple (>1) holders of the requested data.
system.tol2bus.snoop_filter.hit_multi_snoops           14                       # Number of snoops hitting in the snoop filter with multiple (>1) holders of the requested data.
system.tol2bus.snoop_filter.hit_single_requests        65123                       # Number of requests hitting in the snoop filter with a single holder of the requested data.
system.tol2bus.snoop_filter.hit_single_snoops          777                       # Number of snoops hitting in the snoop filter with a single holder of the requested data.
system.tol2bus.snoop_filter.tot_requests       131193                       # Total number of requests made to the snoop filter.
system.tol2bus.snoop_filter.tot_snoops            791                       # Total number of snoops made to the snoop filter.
system.membus.pwrStateResidencyTicks::UNDEFINED 114540392000                       # Cumulative time (in ticks) in various power states
system.membus.trans_dist::ReadResp               7895                       # Transaction distribution
system.membus.trans_dist::WritebackDirty        37658                       # Transaction distribution
system.membus.trans_dist::CleanEvict              390                       # Transaction distribution
system.membus.trans_dist::ReadExReq             38812                       # Transaction distribution
system.membus.trans_dist::ReadExResp            38812                       # Transaction distribution
system.membus.trans_dist::ReadSharedReq          7895                       # Transaction distribution
system.membus.pkt_count_system.l2.mem_side::system.mem_ctrls.port       131462                       # Packet count per connected master and slave (bytes)
system.membus.pkt_count::total                 131462                       # Packet count per connected master and slave (bytes)
system.membus.pkt_size_system.l2.mem_side::system.mem_ctrls.port      5399360                       # Cumulative packet size per connected master and slave (bytes)
system.membus.pkt_size::total                 5399360                       # Cumulative packet size per connected master and slave (bytes)
system.membus.snoops                                0                       # Total snoops (count)
system.membus.snoopTraffic                          0                       # Total snoop traffic (bytes)
system.membus.snoop_fanout::samples             46707                       # Request fanout histogram
system.membus.snoop_fanout::mean                    0                       # Request fanout histogram
system.membus.snoop_fanout::stdev                   0                       # Request fanout histogram
system.membus.snoop_fanout::underflows              0      0.00%      0.00% # Request fanout histogram
system.membus.snoop_fanout::0                   46707    100.00%    100.00% # Request fanout histogram
system.membus.snoop_fanout::1                       0      0.00%    100.00% # Request fanout histogram
system.membus.snoop_fanout::overflows               0      0.00%    100.00% # Request fanout histogram
system.membus.snoop_fanout::min_value               0                       # Request fanout histogram
system.membus.snoop_fanout::max_value               0                       # Request fanout histogram
system.membus.snoop_fanout::total               46707                       # Request fanout histogram
system.membus.respLayer1.occupancy          252243250                       # Layer occupancy (ticks)
system.membus.respLayer1.utilization              0.2                       # Layer utilization (%)
system.membus.reqLayer0.occupancy           235387000                       # Layer occupancy (ticks)
system.membus.reqLayer0.utilization               0.2                       # Layer utilization (%)
system.tol2bus.pwrStateResidencyTicks::UNDEFINED 114540392000                       # Cumulative time (in ticks) in various power states
system.tol2bus.trans_dist::ReadResp             25372                       # Transaction distribution
system.tol2bus.trans_dist::WritebackDirty        93870                       # Transaction distribution
system.tol2bus.trans_dist::WritebackClean          758                       # Transaction distribution
system.tol2bus.trans_dist::CleanEvict            9194                       # Transaction distribution
system.tol2bus.trans_dist::ReadExReq            40702                       # Transaction distribution
system.tol2bus.trans_dist::ReadExResp           40702                       # Transaction distribution
system.tol2bus.trans_dist::ReadCleanReq          1201                       # Transaction distribution
system.tol2bus.trans_dist::ReadSharedReq        24171                       # Transaction distribution
system.tol2bus.pkt_count_system.cpu.icache.mem_side::system.l2.cpu_side         3160                       # Packet count per connected master and slave (bytes)
system.tol2bus.pkt_count_system.cpu.dcache.mem_side::system.l2.cpu_side       194107                       # Packet count per connected master and slave (bytes)
system.tol2bus.pkt_count::total                197267                       # Packet count per connected master and slave (bytes)
system.tol2bus.pkt_size_system.cpu.icache.mem_side::system.l2.cpu_side       125376                       # Cumulative packet size per connected master and slave (bytes)
system.tol2bus.pkt_size_system.cpu.dcache.mem_side::system.l2.cpu_side      7749440                       # Cumulative packet size per connected master and slave (bytes)
system.tol2bus.pkt_size::total                7874816                       # Cumulative packet size per connected master and slave (bytes)
system.tol2bus.snoops                           38703                       # Total snoops (count)
system.tol2bus.snoopTraffic                   2410112                       # Total snoop traffic (bytes)
system.tol2bus.snoop_fanout::samples           104777                       # Request fanout histogram
system.tol2bus.snoop_fanout::mean            0.008132                       # Request fanout histogram
system.tol2bus.snoop_fanout::stdev           0.091284                       # Request fanout histogram
system.tol2bus.snoop_fanout::underflows             0      0.00%      0.00% # Request fanout histogram
system.tol2bus.snoop_fanout::0                 103939     99.20%     99.20% # Request fanout histogram
system.tol2bus.snoop_fanout::1                    824      0.79%     99.99% # Request fanout histogram
system.tol2bus.snoop_fanout::2                     14      0.01%    100.00% # Request fanout histogram
system.tol2bus.snoop_fanout::overflows              0      0.00%    100.00% # Request fanout histogram
system.tol2bus.snoop_fanout::min_value              0                       # Request fanout histogram
system.tol2bus.snoop_fanout::max_value              2                       # Request fanout histogram
system.tol2bus.snoop_fanout::total             104777                       # Request fanout histogram
system.tol2bus.reqLayer0.occupancy          245133000                       # Layer occupancy (ticks)
system.tol2bus.reqLayer0.utilization              0.2                       # Layer utilization (%)
system.tol2bus.respLayer1.occupancy         194623995                       # Layer occupancy (ticks)
system.tol2bus.respLayer1.utilization             0.2                       # Layer utilization (%)
system.tol2bus.respLayer0.occupancy           3603999                       # Layer occupancy (ticks)
system.tol2bus.respLayer0.utilization             0.0                       # Layer utilization (%)
system.voltage_domain.voltage                       1                       # Voltage in Volts
system.clk_domain.clock                          1000                       # Clock period in ticks
system.l2.pwrStateResidencyTicks::UNDEFINED 114540392000                       # Cumulative time (in ticks) in various power states
system.l2.demand_hits::.cpu.inst                  684                       # number of demand (read+write) hits
system.l2.demand_hits::.cpu.data                18677                       # number of demand (read+write) hits
system.l2.demand_hits::total                    19361                       # number of demand (read+write) hits
system.l2.overall_hits::.cpu.inst                 684                       # number of overall hits
system.l2.overall_hits::.cpu.data               18677                       # number of overall hits
system.l2.overall_hits::total                   19361                       # number of overall hits
system.l2.demand_misses::.cpu.inst                517                       # number of demand (read+write) misses
system.l2.demand_misses::.cpu.data              46196                       # number of demand (read+write) misses
system.l2.demand_misses::total                  46713                       # number of demand (read+write) misses
system.l2.overall_misses::.cpu.inst               517                       # number of overall misses
system.l2.overall_misses::.cpu.data             46196                       # number of overall misses
system.l2.overall_misses::total                 46713                       # number of overall misses
system.l2.demand_miss_latency::.cpu.inst     50836000                       # number of demand (read+write) miss cycles
system.l2.demand_miss_latency::.cpu.data   5083798000                       # number of demand (read+write) miss cycles
system.l2.demand_miss_latency::total       5134634000                       # number of demand (read+write) miss cycles
system.l2.overall_miss_latency::.cpu.inst     50836000                       # number of overall miss cycles
system.l2.overall_miss_latency::.cpu.data   5083798000                       # number of overall miss cycles
system.l2.overall_miss_latency::total      5134634000                       # number of overall miss cycles
system.l2.demand_accesses::.cpu.inst             1201                       # number of demand (read+write) accesses
system.l2.demand_accesses::.cpu.data            64873                       # number of demand (read+write) accesses
system.l2.demand_accesses::total                66074                       # number of demand (read+write) accesses
system.l2.overall_accesses::.cpu.inst            1201                       # number of overall (read+write) accesses
system.l2.overall_accesses::.cpu.data           64873                       # number of overall (read+write) accesses
system.l2.overall_accesses::total               66074                       # number of overall (read+write) accesses
system.l2.demand_miss_rate::.cpu.inst        0.430475                       # miss rate for demand accesses
system.l2.demand_miss_rate::.cpu.data        0.712099                       # miss rate for demand accesses
system.l2.demand_miss_rate::total            0.706980                       # miss rate for demand accesses
system.l2.overall_miss_rate::.cpu.inst       0.430475                       # miss rate for overall accesses
system.l2.overall_miss_rate::.cpu.data       0.712099                       # miss rate for overall accesses
system.l2.overall_miss_rate::total           0.706980                       # miss rate for overall accesses
system.l2.demand_avg_miss_latency::.cpu.inst 98328.820116                       # average overall miss latency
system.l2.demand_avg_miss_latency::.cpu.data 110048.445753                       # average overall miss latency
system.l2.demand_avg_miss_latency::total 109918.737825                       # average overall miss latency
system.l2.overall_avg_miss_latency::.cpu.inst 98328.820116                       # average overall miss latency
system.l2.overall_avg_miss_latency::.cpu.data 110048.445753                       # average overall miss latency
system.l2.overall_avg_miss_latency::total 109918.737825                       # average overall miss latency
system.l2.blocked_cycles::no_mshrs                  0                       # number of cycles access was blocked
system.l2.blocked_cycles::no_targets                0                       # number of cycles access was blocked
system.l2.blocked::no_mshrs                         0                       # number of cycles access was blocked
system.l2.blocked::no_targets                       0                       # number of cycles access was blocked
system.l2.avg_blocked_cycles::no_mshrs            nan                       # average number of cycles each access was blocked
system.l2.avg_blocked_cycles::no_targets          nan                       # average number of cycles each access was blocked
system.l2.writebacks::.writebacks               37658                       # number of writebacks
system.l2.writebacks::total                     37658                       # number of writebacks
system.l2.demand_mshr_hits::.cpu.inst               1                       # number of demand (read+write) MSHR hits
system.l2.demand_mshr_hits::.cpu.data               5                       # number of demand (read+write) MSHR hits
system.l2.demand_mshr_hits::total                   6                       # number of demand (read+write) MSHR hits
system.l2.overall_mshr_hits::.cpu.inst              1                       # number of overall MSHR hits
system.l2.overall_mshr_hits::.cpu.data              5                       # number of overall MSHR hits
system.l2.overall_mshr_hits::total                  6                       # number of overall MSHR hits
system.l2.demand_mshr_misses::.cpu.inst           516                       # number of demand (read+write) MSHR misses
system.l2.demand_mshr_misses::.cpu.data         46191                       # number of demand (read+write) MSHR misses
system.l2.demand_mshr_misses::total             46707                       # number of demand (read+write) MSHR misses
system.l2.overall_mshr_misses::.cpu.inst          516                       # number of overall MSHR misses
system.l2.overall_mshr_misses::.cpu.data        46191                       # number of overall MSHR misses
system.l2.overall_mshr_misses::total            46707                       # number of overall MSHR misses
system.l2.demand_mshr_miss_latency::.cpu.inst     40436000                       # number of demand (read+write) MSHR miss cycles
system.l2.demand_mshr_miss_latency::.cpu.data   4159570000                       # number of demand (read+write) MSHR miss cycles
system.l2.demand_mshr_miss_latency::total   4200006000                       # number of demand (read+write) MSHR miss cycles
system.l2.overall_mshr_miss_latency::.cpu.inst     40436000                       # number of overall MSHR miss cycles
system.l2.overall_mshr_miss_latency::.cpu.data   4159570000                       # number of overall MSHR miss cycles
system.l2.overall_mshr_miss_latency::total   4200006000                       # number of overall MSHR miss cycles
system.l2.demand_mshr_miss_rate::.cpu.inst     0.429642                       # mshr miss rate for demand accesses
system.l2.demand_mshr_miss_rate::.cpu.data     0.712022                       # mshr miss rate for demand accesses
system.l2.demand_mshr_miss_rate::total       0.706889                       # mshr miss rate for demand accesses
system.l2.overall_mshr_miss_rate::.cpu.inst     0.429642                       # mshr miss rate for overall accesses
system.l2.overall_mshr_miss_rate::.cpu.data     0.712022                       # mshr miss rate for overall accesses
system.l2.overall_mshr_miss_rate::total      0.706889                       # mshr miss rate for overall accesses
system.l2.demand_avg_mshr_miss_latency::.cpu.inst 78364.341085                       # average overall mshr miss latency
system.l2.demand_avg_mshr_miss_latency::.cpu.data 90051.525189                       # average overall mshr miss latency
system.l2.demand_avg_mshr_miss_latency::total 89922.409917                       # average overall mshr miss latency
system.l2.overall_avg_mshr_miss_latency::.cpu.inst 78364.341085                       # average overall mshr miss latency
system.l2.overall_avg_mshr_miss_latency::.cpu.data 90051.525189                       # average overall mshr miss latency
system.l2.overall_avg_mshr_miss_latency::total 89922.409917                       # average overall mshr miss latency
system.l2.replacements                          38703                       # number of replacements
system.l2.WritebackDirty_hits::.writebacks        56212                       # number of WritebackDirty hits
system.l2.WritebackDirty_hits::total            56212                       # number of WritebackDirty hits
system.l2.WritebackDirty_accesses::.writebacks        56212                       # number of WritebackDirty accesses(hits+misses)
system.l2.WritebackDirty_accesses::total        56212                       # number of WritebackDirty accesses(hits+misses)
system.l2.WritebackClean_hits::.writebacks          755                       # number of WritebackClean hits
system.l2.WritebackClean_hits::total              755                       # number of WritebackClean hits
system.l2.WritebackClean_accesses::.writebacks          755                       # number of WritebackClean accesses(hits+misses)
system.l2.WritebackClean_accesses::total          755                       # number of WritebackClean accesses(hits+misses)
system.l2.CleanEvict_mshr_misses::.writebacks          136                       # number of CleanEvict MSHR misses
system.l2.CleanEvict_mshr_misses::total           136                       # number of CleanEvict MSHR misses
system.l2.CleanEvict_mshr_miss_rate::.writebacks          inf                       # mshr miss rate for CleanEvict accesses
system.l2.CleanEvict_mshr_miss_rate::total          inf                       # mshr miss rate for CleanEvict accesses
system.l2.ReadExReq_hits::.cpu.data              1890                       # number of ReadExReq hits
system.l2.ReadExReq_hits::total                  1890                       # number of ReadExReq hits
system.l2.ReadExReq_misses::.cpu.data           38812                       # number of ReadExReq misses
system.l2.ReadExReq_misses::total               38812                       # number of ReadExReq misses
system.l2.ReadExReq_miss_latency::.cpu.data   4248317000                       # number of ReadExReq miss cycles
system.l2.ReadExReq_miss_latency::total    4248317000                       # number of ReadExReq miss cycles
system.l2.ReadExReq_accesses::.cpu.data         40702                       # number of ReadExReq accesses(hits+misses)
system.l2.ReadExReq_accesses::total             40702                       # number of ReadExReq accesses(hits+misses)
system.l2.ReadExReq_miss_rate::.cpu.data     0.953565                       # miss rate for ReadExReq accesses
system.l2.ReadExReq_miss_rate::total         0.953565                       # miss rate for ReadExReq accesses
system.l2.ReadExReq_avg_miss_latency::.cpu.data 109458.852932                       # average ReadExReq miss latency
system.l2.ReadExReq_avg_miss_latency::total 109458.852932                       # average ReadExReq miss latency
system.l2.ReadExReq_mshr_misses::.cpu.data        38812                       # number of ReadExReq MSHR misses
system.l2.ReadExReq_mshr_misses::total          38812                       # number of ReadExReq MSHR misses
system.l2.ReadExReq_mshr_miss_latency::.cpu.data   3472077000                       # number of ReadExReq MSHR miss cycles
system.l2.ReadExReq_mshr_miss_latency::total   3472077000                       # number of ReadExReq MSHR miss cycles
system.l2.ReadExReq_mshr_miss_rate::.cpu.data     0.953565                       # mshr miss rate for ReadExReq accesses
system.l2.ReadExReq_mshr_miss_rate::total     0.953565                       # mshr miss rate for ReadExReq accesses
system.l2.ReadExReq_avg_mshr_miss_latency::.cpu.data 89458.852932                       # average ReadExReq mshr miss latency
system.l2.ReadExReq_avg_mshr_miss_latency::total 89458.852932                       # average ReadExReq mshr miss latency
system.l2.ReadCleanReq_hits::.cpu.inst            684                       # number of ReadCleanReq hits
system.l2.ReadCleanReq_hits::total                684                       # number of ReadCleanReq hits
system.l2.ReadCleanReq_misses::.cpu.inst          517                       # number of ReadCleanReq misses
system.l2.ReadCleanReq_misses::total              517                       # number of ReadCleanReq misses
system.l2.ReadCleanReq_miss_latency::.cpu.inst     50836000                       # number of ReadCleanReq miss cycles
system.l2.ReadCleanReq_miss_latency::total     50836000                       # number of ReadCleanReq miss cycles
system.l2.ReadCleanReq_accesses::.cpu.inst         1201                       # number of ReadCleanReq accesses(hits+misses)
system.l2.ReadCleanReq_accesses::total           1201                       # number of ReadCleanReq accesses(hits+misses)
system.l2.ReadCleanReq_miss_rate::.cpu.inst     0.430475                       # miss rate for ReadCleanReq accesses
system.l2.ReadCleanReq_miss_rate::total      0.430475                       # miss rate for ReadCleanReq accesses
system.l2.ReadCleanReq_avg_miss_latency::.cpu.inst 98328.820116                       # average ReadCleanReq miss latency
system.l2.ReadCleanReq_avg_miss_latency::total 98328.820116                       # average ReadCleanReq miss latency
system.l2.ReadCleanReq_mshr_hits::.cpu.inst            1                       # number of ReadCleanReq MSHR hits
system.l2.ReadCleanReq_mshr_hits::total             1                       # number of ReadCleanReq MSHR hits
system.l2.ReadCleanReq_mshr_misses::.cpu.inst          516                       # number of ReadCleanReq MSHR misses
system.l2.ReadCleanReq_mshr_misses::total          516                       # number of ReadCleanReq MSHR misses
system.l2.ReadCleanReq_mshr_miss_latency::.cpu.inst     40436000                       # number of ReadCleanReq MSHR miss cycles
system.l2.ReadCleanReq_mshr_miss_latency::total     40436000                       # number of ReadCleanReq MSHR miss cycles
system.l2.ReadCleanReq_mshr_miss_rate::.cpu.inst     0.429642                       # mshr miss rate for ReadCleanReq accesses
system.l2.ReadCleanReq_mshr_miss_rate::total     0.429642                       # mshr miss rate for ReadCleanReq accesses
system.l2.ReadCleanReq_avg_mshr_miss_latency::.cpu.inst 78364.341085                       # average ReadCleanReq mshr miss latency
system.l2.ReadCleanReq_avg_mshr_miss_latency::total 78364.341085                       # average ReadCleanReq mshr miss latency
system.l2.ReadSharedReq_hits::.cpu.data         16787                       # number of ReadSharedReq hits
system.l2.ReadSharedReq_hits::total             16787                       # number of ReadSharedReq hits
system.l2.ReadSharedReq_misses::.cpu.data         7384                       # number of ReadSharedReq misses
system.l2.ReadSharedReq_misses::total            7384                       # number of ReadSharedReq misses
system.l2.ReadSharedReq_miss_latency::.cpu.data    835481000                       # number of ReadSharedReq miss cycles
system.l2.ReadSharedReq_miss_latency::total    835481000                       # number of ReadSharedReq miss cycles
system.l2.ReadSharedReq_accesses::.cpu.data        24171                       # number of ReadSharedReq accesses(hits+misses)
system.l2.ReadSharedReq_accesses::total         24171                       # number of ReadSharedReq accesses(hits+misses)
system.l2.ReadSharedReq_miss_rate::.cpu.data     0.305490                       # miss rate for ReadSharedReq accesses
system.l2.ReadSharedReq_miss_rate::total     0.305490                       # miss rate for ReadSharedReq accesses
system.l2.ReadSharedReq_avg_miss_latency::.cpu.data 113147.481040                       # average ReadSharedReq miss latency
system.l2.ReadSharedReq_avg_miss_latency::total 113147.481040                       # average ReadSharedReq miss latency
system.l2.ReadSharedReq_mshr_hits::.cpu.data            5                       # number of ReadSharedReq MSHR hits
system.l2.ReadSharedReq_mshr_hits::total            5                       # number of ReadSharedReq MSHR hits
system.l2.ReadSharedReq_mshr_misses::.cpu.data         7379                       # number of ReadSharedReq MSHR misses
system.l2.ReadSharedReq_mshr_misses::total         7379                       # number of ReadSharedReq MSHR misses
system.l2.ReadSharedReq_mshr_miss_latency::.cpu.data    687493000                       # number of ReadSharedReq MSHR miss cycles
system.l2.ReadSharedReq_mshr_miss_latency::total    687493000                       # number of ReadSharedReq MSHR miss cycles
system.l2.ReadSharedReq_mshr_miss_rate::.cpu.data     0.305283                       # mshr miss rate for ReadSharedReq accesses
system.l2.ReadSharedReq_mshr_miss_rate::total     0.305283                       # mshr miss rate for ReadSharedReq accesses
system.l2.ReadSharedReq_avg_mshr_miss_latency::.cpu.data 93168.857569                       # average ReadSharedReq mshr miss latency
system.l2.ReadSharedReq_avg_mshr_miss_latency::total 93168.857569                       # average ReadSharedReq mshr miss latency
system.l2.tags.pwrStateResidencyTicks::UNDEFINED 114540392000                       # Cumulative time (in ticks) in various power states
system.l2.tags.tagsinuse                  7977.919870                       # Cycle average of tags in use
system.l2.tags.total_refs                      131008                       # Total number of references to valid blocks.
system.l2.tags.sampled_refs                     46895                       # Sample count of references to valid blocks.
system.l2.tags.avg_refs                      2.793645                       # Average number of references to valid blocks.
system.l2.tags.warmup_cycle                     87000                       # Cycle when the warmup percentage was hit.
system.l2.tags.occ_blocks::.writebacks      28.478302                       # Average occupied blocks per requestor
system.l2.tags.occ_blocks::.cpu.inst        23.159410                       # Average occupied blocks per requestor
system.l2.tags.occ_blocks::.cpu.data      7926.282158                       # Average occupied blocks per requestor
system.l2.tags.occ_percent::.writebacks      0.003476                       # Average percentage of cache occupancy
system.l2.tags.occ_percent::.cpu.inst        0.002827                       # Average percentage of cache occupancy
system.l2.tags.occ_percent::.cpu.data        0.967564                       # Average percentage of cache occupancy
system.l2.tags.occ_percent::total            0.973867                       # Average percentage of cache occupancy
system.l2.tags.occ_task_id_blocks::1024          8192                       # Occupied blocks per task id
system.l2.tags.age_task_id_blocks_1024::0            2                       # Occupied blocks per task id
system.l2.tags.age_task_id_blocks_1024::1           17                       # Occupied blocks per task id
system.l2.tags.age_task_id_blocks_1024::2          236                       # Occupied blocks per task id
system.l2.tags.age_task_id_blocks_1024::3         2511                       # Occupied blocks per task id
system.l2.tags.age_task_id_blocks_1024::4         5426                       # Occupied blocks per task id
system.l2.tags.occ_task_id_percent::1024            1                       # Percentage of cache occupancy per task id
system.l2.tags.tag_accesses                    309195                       # Number of tag accesses
system.l2.tags.data_accesses                   309195                       # Number of data accesses
system.cpu_voltage_domain.voltage                   1                       # Voltage in Volts
system.mem_ctrls.pwrStateResidencyTicks::UNDEFINED 114540392000                       # Cumulative time (in ticks) in various power states
system.mem_ctrls.bytes_read::.cpu.inst          33024                       # Number of bytes read from this memory
system.mem_ctrls.bytes_read::.cpu.data        2956224                       # Number of bytes read from this memory
system.mem_ctrls.bytes_read::total            2989248                       # Number of bytes read from this memory
system.mem_ctrls.bytes_inst_read::.cpu.inst        33024                       # Number of instructions bytes read from this memory
system.mem_ctrls.bytes_inst_read::total         33024                       # Number of instructions bytes read from this memory
system.mem_ctrls.bytes_written::.writebacks      2410112                       # Number of bytes written to this memory
system.mem_ctrls.bytes_written::total         2410112                       # Number of bytes written to this memory
system.mem_ctrls.num_reads::.cpu.inst             516                       # Number of read requests responded to by this memory
system.mem_ctrls.num_reads::.cpu.data           46191                       # Number of read requests responded to by this memory
system.mem_ctrls.num_reads::total               46707                       # Number of read requests responded to by this memory
system.mem_ctrls.num_writes::.writebacks        37658                       # Number of write requests responded to by this memory
system.mem_ctrls.num_writes::total              37658                       # Number of write requests responded to by this memory
system.mem_ctrls.bw_read::.cpu.inst            288318                       # Total read bandwidth from this memory (bytes/s)
system.mem_ctrls.bw_read::.cpu.data          25809445                       # Total read bandwidth from this memory (bytes/s)
system.mem_ctrls.bw_read::total              26097763                       # Total read bandwidth from this memory (bytes/s)
system.mem_ctrls.bw_inst_read::.cpu.inst       288318                       # Instruction read bandwidth from this memory (bytes/s)
system.mem_ctrls.bw_inst_read::total           288318                       # Instruction read bandwidth from this memory (bytes/s)
system.mem_ctrls.bw_write::.writebacks       21041590                       # Write bandwidth from this memory (bytes/s)
system.mem_ctrls.bw_write::total             21041590                       # Write bandwidth from this memory (bytes/s)
system.mem_ctrls.bw_total::.writebacks       21041590                       # Total bandwidth to/from this memory (bytes/s)
system.mem_ctrls.bw_total::.cpu.inst           288318                       # Total bandwidth to/from this memory (bytes/s)
system.mem_ctrls.bw_total::.cpu.data         25809445                       # Total bandwidth to/from this memory (bytes/s)
system.mem_ctrls.bw_total::total             47139353                       # Total bandwidth to/from this memory (bytes/s)
system.mem_ctrls.avgPriority_.writebacks::samples     37658.00                       # Average QoS priority value for accepted requests
system.mem_ctrls.avgPriority_.cpu.inst::samples       516.00                       # Average QoS priority value for accepted requests
system.mem_ctrls.avgPriority_.cpu.data::samples     46171.00                       # Average QoS priority value for accepted requests
system.mem_ctrls.priorityMinLatency      0.000000018750                       # per QoS priority minimum request to response latency (s)
system.mem_ctrls.priorityMaxLatency      0.001103240500                       # per QoS priority maximum request to response latency (s)
system.mem_ctrls.numReadWriteTurnArounds         2111                       # Number of turnarounds from READ to WRITE
system.mem_ctrls.numWriteReadTurnArounds         2111                       # Number of turnarounds from WRITE to READ
system.mem_ctrls.numStayReadState              159848                       # Number of times bus staying in READ state
system.mem_ctrls.numStayWriteState              35571                       # Number of times bus staying in WRITE state
system.mem_ctrls.readReqs                       46707                       # Number of read requests accepted
system.mem_ctrls.writeReqs                      37658                       # Number of write requests accepted
system.mem_ctrls.readBursts                     46707                       # Number of DRAM read bursts, including those serviced by the write queue
system.mem_ctrls.writeBursts                    37658                       # Number of DRAM write bursts, including those merged in the write queue
system.mem_ctrls.servicedByWrQ                     20                       # Number of DRAM read bursts serviced by the write queue
system.mem_ctrls.mergedWrBursts                     0                       # Number of DRAM write bursts merged with an existing one
system.mem_ctrls.neitherReadNorWriteReqs            0                       # Number of requests that are neither read nor write
system.mem_ctrls.perBankRdBursts::0              2888                       # Per bank write bursts
system.mem_ctrls.perBankRdBursts::1              2759                       # Per bank write bursts
system.mem_ctrls.perBankRdBursts::2              2734                       # Per bank write bursts
system.mem_ctrls.perBankRdBursts::3              3116                       # Per bank write bursts
system.mem_ctrls.perBankRdBursts::4              3299                       # Per bank write bursts
system.mem_ctrls.perBankRdBursts::5              2854                       # Per bank write bursts
system.mem_ctrls.perBankRdBursts::6              2871                       # Per bank write bursts
system.mem_ctrls.perBankRdBursts::7              2894                       # Per bank write bursts
system.mem_ctrls.perBankRdBursts::8              2882                       # Per bank write bursts
system.mem_ctrls.perBankRdBursts::9              2908                       # Per bank write bursts
system.mem_ctrls.perBankRdBursts::10             2900                       # Per bank write bursts
system.mem_ctrls.perBankRdBursts::11             2936                       # Per bank write bursts
system.mem_ctrls.perBankRdBursts::12             2935                       # Per bank write bursts
system.mem_ctrls.perBankRdBursts::13             2877                       # Per bank write bursts
system.mem_ctrls.perBankRdBursts::14             2953                       # Per bank write bursts
system.mem_ctrls.perBankRdBursts::15             2881                       # Per bank write bursts
system.mem_ctrls.perBankWrBursts::0              2300                       # Per bank write bursts
system.mem_ctrls.perBankWrBursts::1              2217                       # Per bank write bursts
system.mem_ctrls.perBankWrBursts::2              2206                       # Per bank write bursts
system.mem_ctrls.perBankWrBursts::3              2428                       # Per bank write bursts
system.mem_ctrls.perBankWrBursts::4              2617                       # Per bank write bursts
system.mem_ctrls.perBankWrBursts::5              2342                       # Per bank write bursts
system.mem_ctrls.perBankWrBursts::6              2360                       # Per bank write bursts
system.mem_ctrls.perBankWrBursts::7              2355                       # Per bank write bursts
system.mem_ctrls.perBankWrBursts::8              2345                       # Per bank write bursts
system.mem_ctrls.perBankWrBursts::9              2340                       # Per bank write bursts
system.mem_ctrls.perBankWrBursts::10             2349                       # Per bank write bursts
system.mem_ctrls.perBankWrBursts::11             2366                       # Per bank write bursts
system.mem_ctrls.perBankWrBursts::12             2367                       # Per bank write bursts
system.mem_ctrls.perBankWrBursts::13             2339                       # Per bank write bursts
system.mem_ctrls.perBankWrBursts::14             2366                       # Per bank write bursts
system.mem_ctrls.perBankWrBursts::15             2337                       # Per bank write bursts
system.mem_ctrls.avgRdQLen                       1.06                       # Average read queue length when enqueuing
system.mem_ctrls.avgWrQLen                      24.07                       # Average write queue length when enqueuing
system.mem_ctrls.totQLat                    924003500                       # Total ticks spent queuing
system.mem_ctrls.totBusLat                  233435000                       # Total ticks spent in databus transfers
system.mem_ctrls.totMemAccLat              1799384750                       # Total ticks spent from burst creation until serviced by the DRAM
system.mem_ctrls.avgQLat                     19791.45                       # Average queueing delay per DRAM burst
system.mem_ctrls.avgBusLat                    5000.00                       # Average bus latency per DRAM burst
system.mem_ctrls.avgMemAccLat                38541.45                       # Average memory access latency per DRAM burst
system.mem_ctrls.numRdRetry                         0                       # Number of times read queue was full causing retry
system.mem_ctrls.numWrRetry                         0                       # Number of times write queue was full causing retry
system.mem_ctrls.readRowHits                    18997                       # Number of row buffer hits during reads
system.mem_ctrls.writeRowHits                   27822                       # Number of row buffer hits during writes
system.mem_ctrls.readRowHitRate                 40.69                       # Row buffer hit rate for reads
system.mem_ctrls.writeRowHitRate                73.88                       # Row buffer hit rate for writes
system.mem_ctrls.readPktSize::0                     0                       # Read request sizes (log2)
system.mem_ctrls.readPktSize::1                     0                       # Read request sizes (log2)
system.mem_ctrls.readPktSize::2                     0                       # Read request sizes (log2)
system.mem_ctrls.readPktSize::3                     0                       # Read request sizes (log2)
system.mem_ctrls.readPktSize::4                     0                       # Read request sizes (log2)
system.mem_ctrls.readPktSize::5                     0                       # Read request sizes (log2)
system.mem_ctrls.readPktSize::6                 46707                       # Read request sizes (log2)
system.mem_ctrls.writePktSize::0                    0                       # Write request sizes (log2)
system.mem_ctrls.writePktSize::1                    0                       # Write request sizes (log2)
system.mem_ctrls.writePktSize::2                    0                       # Write request sizes (log2)
system.mem_ctrls.writePktSize::3                    0                       # Write request sizes (log2)
system.mem_ctrls.writePktSize::4                    0                       # Write request sizes (log2)
system.mem_ctrls.writePktSize::5                    0                       # Write request sizes (log2)
system.mem_ctrls.writePktSize::6                37658                       # Write request sizes (log2)
system.mem_ctrls.rdQLenPdf::0                   44711                       # What read queue length does an incoming req see
system.mem_ctrls.rdQLenPdf::1                    1970                       # What read queue length does an incoming req see
system.mem_ctrls.rdQLenPdf::2                       6                       # What read queue length does an incoming req see
system.mem_ctrls.rdQLenPdf::3                       0                       # What read queue length does an incoming req see
system.mem_ctrls.rdQLenPdf::4                       0                       # What read queue length does an incoming req see
system.mem_ctrls.rdQLenPdf::5                       0                       # What read queue length does an incoming req see
system.mem_ctrls.rdQLenPdf::6                       0                       # What read queue length does an incoming req see
system.mem_ctrls.rdQLenPdf::7                       0                       # What read queue length does an incoming req see
system.mem_ctrls.rdQLenPdf::8                       0                       # What read queue length does an incoming req see
system.mem_ctrls.rdQLenPdf::9                       0                       # What read queue length does an incoming req see
system.mem_ctrls.rdQLenPdf::10                      0                       # What read queue length does an incoming req see
system.mem_ctrls.rdQLenPdf::11                      0                       # What read queue length does an incoming req see
system.mem_ctrls.rdQLenPdf::12                      0                       # What read queue length does an incoming req see
system.mem_ctrls.rdQLenPdf::13                      0                       # What read queue length does an incoming req see
system.mem_ctrls.rdQLenPdf::14                      0                       # What read queue length does an incoming req see
system.mem_ctrls.rdQLenPdf::15                      0                       # What read queue length does an incoming req see
system.mem_ctrls.rdQLenPdf::16                      0                       # What read queue length does an incoming req see
system.mem_ctrls.rdQLenPdf::17                      0                       # What read queue length does an incoming req see
system.mem_ctrls.rdQLenPdf::18                      0                       # What read queue length does an incoming req see
system.mem_ctrls.rdQLenPdf::19                      0                       # What read queue length does an incoming req see
system.mem_ctrls.rdQLenPdf::20                      0                       # What read queue length does an incoming req see
system.mem_ctrls.rdQLenPdf::21                      0                       # What read queue length does an incoming req see
system.mem_ctrls.rdQLenPdf::22                      0                       # What read queue length does an incoming req see
system.mem_ctrls.rdQLenPdf::23                      0                       # What read queue length does an incoming req see
system.mem_ctrls.rdQLenPdf::24                      0                       # What read queue length does an incoming req see
system.mem_ctrls.rdQLenPdf::25                      0                       # What read queue length does an incoming req see
system.mem_ctrls.rdQLenPdf::26                      0                       # What read queue length does an incoming req see
system.mem_ctrls.rdQLenPdf::27                      0                       # What read queue length does an incoming req see
system.mem_ctrls.rdQLenPdf::28                      0                       # What read queue length does an incoming req see
system.mem_ctrls.rdQLenPdf::29                      0                       # What read queue length does an incoming req see
system.mem_ctrls.rdQLenPdf::30                      0                       # What read queue length does an incoming req see
system.mem_ctrls.rdQLenPdf::31                      0                       # What read queue length does an incoming req see
system.mem_ctrls.wrQLenPdf::0                       1                       # What write queue length does an incoming req see
system.mem_ctrls.wrQLenPdf::1                       1                       # What write queue length does an incoming req see
system.mem_ctrls.wrQLenPdf::2                       1                       # What write queue length does an incoming req see
system.mem_ctrls.wrQLenPdf::3                       1                       # What write queue length does an incoming req see
system.mem_ctrls.wrQLenPdf::4                       1                       # What write queue length does an incoming req see
system.mem_ctrls.wrQLenPdf::5                       1                       # What write queue length does an incoming req see
system.mem_ctrls.wrQLenPdf::6                       1                       # What write queue length does an incoming req see
system.mem_ctrls.wrQLenPdf::7                       1                       # What write queue length does an incoming req see
system.mem_ctrls.wrQLenPdf::8                       1                       # What write queue length does an incoming req see
system.mem_ctrls.wrQLenPdf::9                       1                       # What write queue length does an incoming req see
system.mem_ctrls.wrQLenPdf::10                      1                       # What write queue length does an incoming req see
system.mem_ctrls.wrQLenPdf::11                      1                       # What write queue length does an incoming req see
system.mem_ctrls.wrQLenPdf::12                      1                       # What write queue length does an incoming req see
system.mem_ctrls.wrQLenPdf::13                      1                       # What write queue length does an incoming req see
system.mem_ctrls.wrQLenPdf::14                      1                       # What write queue length does an incoming req see
system.mem_ctrls.wrQLenPdf::15                   1843                       # What write queue length does an incoming req see
system.mem_ctrls.wrQLenPdf::16                   1845                       # What write queue length does an incoming req see
system.mem_ctrls.wrQLenPdf::17                   2111                       # What write queue length does an incoming req see
system.mem_ctrls.wrQLenPdf::18                   2116                       # What write queue length does an incoming req see
system.mem_ctrls.wrQLenPdf::19                   2118                       # What write queue length does an incoming req see
system.mem_ctrls.wrQLenPdf::20                   2118                       # What write queue length does an incoming req see
system.mem_ctrls.wrQLenPdf::21                   2120                       # What write queue length does an incoming req see
system.mem_ctrls.wrQLenPdf::22                   2125                       # What write queue length does an incoming req see
system.mem_ctrls.wrQLenPdf::23                   2136                       # What write queue length does an incoming req see
system.mem_ctrls.wrQLenPdf::24                   2118                       # What write queue length does an incoming req see
system.mem_ctrls.wrQLenPdf::25                   2134                       # What write queue length does an incoming req see
system.mem_ctrls.wrQLenPdf::26                   2115                       # What write queue length does an incoming req see
system.mem_ctrls.wrQLenPdf::27                   2131                       # What write queue length does an incoming req see
system.mem_ctrls.wrQLenPdf::28                   2147                       # What write queue length does an incoming req see
system.mem_ctrls.wrQLenPdf::29                   2125                       # What write queue length does an incoming req see
system.mem_ctrls.wrQLenPdf::30                   2116                       # What write queue length does an incoming req see
system.mem_ctrls.wrQLenPdf::31                   2113                       # What write queue length does an incoming req see
system.mem_ctrls.wrQLenPdf::32                   2111                       # What write queue length does an incoming req see
system.mem_ctrls.wrQLenPdf::33                      1                       # What write queue length does an incoming req see
system.mem_ctrls.wrQLenPdf::34                      0                       # What write queue length does an incoming req see
system.mem_ctrls.wrQLenPdf::35                      0                       # What write queue length does an incoming req see
system.mem_ctrls.wrQLenPdf::36                      0                       # What write queue length does an incoming req see
system.mem_ctrls.wrQLenPdf::37                      0                       # What write queue length does an incoming req see
system.mem_ctrls.wrQLenPdf::38                      0                       # What write queue length does an incoming req see
system.mem_ctrls.wrQLenPdf::39                      0                       # What write queue length does an incoming req see
system.mem_ctrls.wrQLenPdf::40                      0                       # What write queue length does an incoming req see
system.mem_ctrls.wrQLenPdf::41                      0                       # What write queue length does an incoming req see
system.mem_ctrls.wrQLenPdf::42                      0                       # What write queue length does an incoming req see
system.mem_ctrls.wrQLenPdf::43                      0                       # What write queue length does an incoming req see
system.mem_ctrls.wrQLenPdf::44                      0                       # What write queue length does an incoming req see
system.mem_ctrls.wrQLenPdf::45                      0                       # What write queue length does an incoming req see
system.mem_ctrls.wrQLenPdf::46                      0                       # What write queue length does an incoming req see
system.mem_ctrls.wrQLenPdf::47                      0                       # What write queue length does an incoming req see
system.mem_ctrls.wrQLenPdf::48                      0                       # What write queue length does an incoming req see
system.mem_ctrls.wrQLenPdf::49                      0                       # What write queue length does an incoming req see
system.mem_ctrls.wrQLenPdf::50                      0                       # What write queue length does an incoming req see
system.mem_ctrls.wrQLenPdf::51                      0                       # What write queue length does an incoming req see
system.mem_ctrls.wrQLenPdf::52                      0                       # What write queue length does an incoming req see
system.mem_ctrls.wrQLenPdf::53                      0                       # What write queue length does an incoming req see
system.mem_ctrls.wrQLenPdf::54                      0                       # What write queue length does an incoming req see
system.mem_ctrls.wrQLenPdf::55                      0                       # What write queue length does an incoming req see
system.mem_ctrls.wrQLenPdf::56                      0                       # What write queue length does an incoming req see
system.mem_ctrls.wrQLenPdf::57                      0                       # What write queue length does an incoming req see
system.mem_ctrls.wrQLenPdf::58                      0                       # What write queue length does an incoming req see
system.mem_ctrls.wrQLenPdf::59                      0                       # What write queue length does an incoming req see
system.mem_ctrls.wrQLenPdf::60                      0                       # What write queue length does an incoming req see
system.mem_ctrls.wrQLenPdf::61                      0                       # What write queue length does an incoming req see
system.mem_ctrls.wrQLenPdf::62                      0                       # What write queue length does an incoming req see
system.mem_ctrls.wrQLenPdf::63                      0                       # What write queue length does an incoming req see
system.mem_ctrls.bytesPerActivate::samples        37501                       # Bytes accessed per row activation
system.mem_ctrls.bytesPerActivate::mean    143.902296                       # Bytes accessed per row activation
system.mem_ctrls.bytesPerActivate::gmean   104.747590                       # Bytes accessed per row activation
system.mem_ctrls.bytesPerActivate::stdev   169.572619                       # Bytes accessed per row activation
system.mem_ctrls.bytesPerActivate::0-127        20891     55.71%     55.71% # Bytes accessed per row activation
system.mem_ctrls.bytesPerActivate::128-255        11825     31.53%     87.24% # Bytes accessed per row activation
system.mem_ctrls.bytesPerActivate::256-383         2278      6.07%     93.31% # Bytes accessed per row activation
system.mem_ctrls.bytesPerActivate::384-511          771      2.06%     95.37% # Bytes accessed per row activation
system.mem_ctrls.bytesPerActivate::512-639          321      0.86%     96.23% # Bytes accessed per row activation
system.mem_ctrls.bytesPerActivate::640-767          285      0.76%     96.99% # Bytes accessed per row activation
system.mem_ctrls.bytesPerActivate::768-895          296      0.79%     97.78% # Bytes accessed per row activation
system.mem_ctrls.bytesPerActivate::896-1023          380      1.01%     98.79% # Bytes accessed per row activation
system.mem_ctrls.bytesPerActivate::1024-1151          454      1.21%    100.00% # Bytes accessed per row activation
system.mem_ctrls.bytesPerActivate::total        37501                       # Bytes accessed per row activation
system.mem_ctrls.rdPerTurnAround::samples         2111                       # Reads before turning the bus around for writes
system.mem_ctrls.rdPerTurnAround::mean      22.111795                       # Reads before turning the bus around for writes
system.mem_ctrls.rdPerTurnAround::gmean     19.164516                       # Reads before turning the bus around for writes
system.mem_ctrls.rdPerTurnAround::stdev     84.216021                       # Reads before turning the bus around for writes
system.mem_ctrls.rdPerTurnAround::0-127          2106     99.76%     99.76% # Reads before turning the bus around for writes
system.mem_ctrls.rdPerTurnAround::256-383            3      0.14%     99.91% # Reads before turning the bus around for writes
[...]
system.cpu.icache.ReadReq_mshr_misses::.cpu.inst         1201                       # number of ReadReq MSHR misses
system.cpu.icache.ReadReq_mshr_misses::total         1201                       # number of ReadReq MSHR misses
system.cpu.icache.ReadReq_mshr_miss_latency::.cpu.inst     68822000                       # number of ReadReq MSHR miss cycles
system.cpu.icache.ReadReq_mshr_miss_latency::total     68822000                       # number of ReadReq MSHR miss cycles
system.cpu.icache.ReadReq_mshr_miss_rate::.cpu.inst     0.000042                       # mshr miss rate for ReadReq accesses
system.cpu.icache.ReadReq_mshr_miss_rate::total     0.000042                       # mshr miss rate for ReadReq accesses
system.cpu.icache.ReadReq_avg_mshr_miss_latency::.cpu.inst 57303.913405                       # average ReadReq mshr miss latency
system.cpu.icache.ReadReq_avg_mshr_miss_latency::total 57303.913405                       # average ReadReq mshr miss latency
system.cpu.icache.tags.pwrStateResidencyTicks::UNDEFINED 114540392000                       # Cumulative time (in ticks) in various power states
system.cpu.icache.tags.tagsinuse           442.106755                       # Cycle average of tags in use
system.cpu.icache.tags.total_refs            28671046                       # Total number of references to valid blocks.
system.cpu.icache.tags.sampled_refs              1201                       # Sample count of references to valid blocks.
system.cpu.icache.tags.avg_refs          23872.644463                       # Average number of references to valid blocks.
system.cpu.icache.tags.warmup_cycle            108000                       # Cycle when the warmup percentage was hit.
system.cpu.icache.tags.occ_blocks::.cpu.inst   442.106755                       # Average occupied blocks per requestor
system.cpu.icache.tags.occ_percent::.cpu.inst     0.431745                       # Average percentage of cache occupancy
system.cpu.icache.tags.occ_percent::total     0.431745                       # Average percentage of cache occupancy
system.cpu.icache.tags.occ_task_id_blocks::1024          443                       # Occupied blocks per task id
system.cpu.icache.tags.age_task_id_blocks_1024::3            5                       # Occupied blocks per task id
system.cpu.icache.tags.age_task_id_blocks_1024::4          438                       # Occupied blocks per task id
system.cpu.icache.tags.occ_task_id_percent::1024     0.432617                       # Percentage of cache occupancy per task id
system.cpu.icache.tags.tag_accesses          28672247                       # Number of tag accesses
system.cpu.icache.tags.data_accesses         28672247                       # Number of data accesses
system.cpu.dtb.walker.pwrStateResidencyTicks::UNDEFINED 114540392000                       # Cumulative time (in ticks) in various power states
system.cpu.dtb.stage2_mmu.stage2_tlb.walker.pwrStateResidencyTicks::UNDEFINED 114540392000                       # Cumulative time (in ticks) in various power states
system.cpu.dcache.pwrStateResidencyTicks::UNDEFINED 114540392000                       # Cumulative time (in ticks) in various power states
system.cpu.dcache.demand_hits::.cpu.data     35648315                       # number of demand (read+write) hits
system.cpu.dcache.demand_hits::total         35648315                       # number of demand (read+write) hits
system.cpu.dcache.overall_hits::.cpu.data     35651621                       # number of overall hits
system.cpu.dcache.overall_hits::total        35651621                       # number of overall hits
system.cpu.dcache.demand_misses::.cpu.data        89037                       # number of demand (read+write) misses
system.cpu.dcache.demand_misses::total          89037                       # number of demand (read+write) misses
system.cpu.dcache.overall_misses::.cpu.data        89092                       # number of overall misses
system.cpu.dcache.overall_misses::total         89092                       # number of overall misses
system.cpu.dcache.demand_miss_latency::.cpu.data   7277655000                       # number of demand (read+write) miss cycles
system.cpu.dcache.demand_miss_latency::total   7277655000                       # number of demand (read+write) miss cycles
system.cpu.dcache.overall_miss_latency::.cpu.data   7277655000                       # number of overall miss cycles
system.cpu.dcache.overall_miss_latency::total   7277655000                       # number of overall miss cycles
system.cpu.dcache.demand_accesses::.cpu.data     35737352                       # number of demand (read+write) accesses
system.cpu.dcache.demand_accesses::total     35737352                       # number of demand (read+write) accesses
system.cpu.dcache.overall_accesses::.cpu.data     35740713                       # number of overall (read+write) accesses
system.cpu.dcache.overall_accesses::total     35740713                       # number of overall (read+write) accesses
system.cpu.dcache.demand_miss_rate::.cpu.data     0.002491                       # miss rate for demand accesses
system.cpu.dcache.demand_miss_rate::total     0.002491                       # miss rate for demand accesses
system.cpu.dcache.overall_miss_rate::.cpu.data     0.002493                       # miss rate for overall accesses
system.cpu.dcache.overall_miss_rate::total     0.002493                       # miss rate for overall accesses
system.cpu.dcache.demand_avg_miss_latency::.cpu.data 81737.423768                       # average overall miss latency
system.cpu.dcache.demand_avg_miss_latency::total 81737.423768                       # average overall miss latency
system.cpu.dcache.overall_avg_miss_latency::.cpu.data 81686.964037                       # average overall miss latency
system.cpu.dcache.overall_avg_miss_latency::total 81686.964037                       # average overall miss latency
system.cpu.dcache.blocked_cycles::no_mshrs            0                       # number of cycles access was blocked
system.cpu.dcache.blocked_cycles::no_targets            0                       # number of cycles access was blocked
system.cpu.dcache.blocked::no_mshrs                 0                       # number of cycles access was blocked
system.cpu.dcache.blocked::no_targets               0                       # number of cycles access was blocked
system.cpu.dcache.avg_blocked_cycles::no_mshrs          nan                       # average number of cycles each access was blocked
system.cpu.dcache.avg_blocked_cycles::no_targets          nan                       # average number of cycles each access was blocked
system.cpu.dcache.writebacks::.writebacks        56212                       # number of writebacks
system.cpu.dcache.writebacks::total             56212                       # number of writebacks
system.cpu.dcache.demand_mshr_hits::.cpu.data        24214                       # number of demand (read+write) MSHR hits
system.cpu.dcache.demand_mshr_hits::total        24214                       # number of demand (read+write) MSHR hits
system.cpu.dcache.overall_mshr_hits::.cpu.data        24214                       # number of overall MSHR hits
system.cpu.dcache.overall_mshr_hits::total        24214                       # number of overall MSHR hits
system.cpu.dcache.demand_mshr_misses::.cpu.data        64823                       # number of demand (read+write) MSHR misses
system.cpu.dcache.demand_mshr_misses::total        64823                       # number of demand (read+write) MSHR misses
system.cpu.dcache.overall_mshr_misses::.cpu.data        64873                       # number of overall MSHR misses
system.cpu.dcache.overall_mshr_misses::total        64873                       # number of overall MSHR misses
system.cpu.dcache.demand_mshr_miss_latency::.cpu.data   5667717000                       # number of demand (read+write) MSHR miss cycles
system.cpu.dcache.demand_mshr_miss_latency::total   5667717000                       # number of demand (read+write) MSHR miss cycles
system.cpu.dcache.overall_mshr_miss_latency::.cpu.data   5670751000                       # number of overall MSHR miss cycles
system.cpu.dcache.overall_mshr_miss_latency::total   5670751000                       # number of overall MSHR miss cycles
system.cpu.dcache.demand_mshr_miss_rate::.cpu.data     0.001814                       # mshr miss rate for demand accesses
system.cpu.dcache.demand_mshr_miss_rate::total     0.001814                       # mshr miss rate for demand accesses
system.cpu.dcache.overall_mshr_miss_rate::.cpu.data     0.001815                       # mshr miss rate for overall accesses
system.cpu.dcache.overall_mshr_miss_rate::total     0.001815                       # mshr miss rate for overall accesses
system.cpu.dcache.demand_avg_mshr_miss_latency::.cpu.data 87433.734940                       # average overall mshr miss latency
system.cpu.dcache.demand_avg_mshr_miss_latency::total 87433.734940                       # average overall mshr miss latency
system.cpu.dcache.overall_avg_mshr_miss_latency::.cpu.data 87413.114855                       # average overall mshr miss latency
system.cpu.dcache.overall_avg_mshr_miss_latency::total 87413.114855                       # average overall mshr miss latency
system.cpu.dcache.replacements                  64361                       # number of replacements
system.cpu.dcache.ReadReq_hits::.cpu.data     21451903                       # number of ReadReq hits
system.cpu.dcache.ReadReq_hits::total        21451903                       # number of ReadReq hits
system.cpu.dcache.ReadReq_misses::.cpu.data        30698                       # number of ReadReq misses
system.cpu.dcache.ReadReq_misses::total         30698                       # number of ReadReq misses
system.cpu.dcache.ReadReq_miss_latency::.cpu.data   1517362000                       # number of ReadReq miss cycles
system.cpu.dcache.ReadReq_miss_latency::total   1517362000                       # number of ReadReq miss cycles
system.cpu.dcache.ReadReq_accesses::.cpu.data     21482601                       # number of ReadReq accesses(hits+misses)
system.cpu.dcache.ReadReq_accesses::total     21482601                       # number of ReadReq accesses(hits+misses)
system.cpu.dcache.ReadReq_miss_rate::.cpu.data     0.001429                       # miss rate for ReadReq accesses
system.cpu.dcache.ReadReq_miss_rate::total     0.001429                       # miss rate for ReadReq accesses
system.cpu.dcache.ReadReq_avg_miss_latency::.cpu.data 49428.692423                       # average ReadReq miss latency
system.cpu.dcache.ReadReq_avg_miss_latency::total 49428.692423                       # average ReadReq miss latency
system.cpu.dcache.ReadReq_mshr_hits::.cpu.data         6577                       # number of ReadReq MSHR hits
system.cpu.dcache.ReadReq_mshr_hits::total         6577                       # number of ReadReq MSHR hits
system.cpu.dcache.ReadReq_mshr_misses::.cpu.data        24121                       # number of ReadReq MSHR misses
system.cpu.dcache.ReadReq_mshr_misses::total        24121                       # number of ReadReq MSHR misses
system.cpu.dcache.ReadReq_mshr_miss_latency::.cpu.data   1257576000                       # number of ReadReq MSHR miss cycles
system.cpu.dcache.ReadReq_mshr_miss_latency::total   1257576000                       # number of ReadReq MSHR miss cycles
system.cpu.dcache.ReadReq_mshr_miss_rate::.cpu.data     0.001123                       # mshr miss rate for ReadReq accesses
system.cpu.dcache.ReadReq_mshr_miss_rate::total     0.001123                       # mshr miss rate for ReadReq accesses
system.cpu.dcache.ReadReq_avg_mshr_miss_latency::.cpu.data 52136.146926                       # average ReadReq mshr miss latency
system.cpu.dcache.ReadReq_avg_mshr_miss_latency::total 52136.146926                       # average ReadReq mshr miss latency
system.cpu.dcache.WriteReq_hits::.cpu.data     14196412                       # number of WriteReq hits
system.cpu.dcache.WriteReq_hits::total       14196412                       # number of WriteReq hits
system.cpu.dcache.WriteReq_misses::.cpu.data        58339                       # number of WriteReq misses
system.cpu.dcache.WriteReq_misses::total        58339                       # number of WriteReq misses
system.cpu.dcache.WriteReq_miss_latency::.cpu.data   5760293000                       # number of WriteReq miss cycles
system.cpu.dcache.WriteReq_miss_latency::total   5760293000                       # number of WriteReq miss cycles
system.cpu.dcache.WriteReq_accesses::.cpu.data     14254751                       # number of WriteReq accesses(hits+misses)
system.cpu.dcache.WriteReq_accesses::total     14254751                       # number of WriteReq accesses(hits+misses)
system.cpu.dcache.WriteReq_miss_rate::.cpu.data     0.004093                       # miss rate for WriteReq accesses
system.cpu.dcache.WriteReq_miss_rate::total     0.004093                       # miss rate for WriteReq accesses
system.cpu.dcache.WriteReq_avg_miss_latency::.cpu.data 98738.288281                       # average WriteReq miss latency
system.cpu.dcache.WriteReq_avg_miss_latency::total 98738.288281                       # average WriteReq miss latency
system.cpu.dcache.WriteReq_mshr_hits::.cpu.data        17637                       # number of WriteReq MSHR hits
system.cpu.dcache.WriteReq_mshr_hits::total        17637                       # number of WriteReq MSHR hits
system.cpu.dcache.WriteReq_mshr_misses::.cpu.data        40702                       # number of WriteReq MSHR misses
system.cpu.dcache.WriteReq_mshr_misses::total        40702                       # number of WriteReq MSHR misses
system.cpu.dcache.WriteReq_mshr_miss_latency::.cpu.data   4410141000                       # number of WriteReq MSHR miss cycles
system.cpu.dcache.WriteReq_mshr_miss_latency::total   4410141000                       # number of WriteReq MSHR miss cycles
system.cpu.dcache.WriteReq_mshr_miss_rate::.cpu.data     0.002855                       # mshr miss rate for WriteReq accesses
system.cpu.dcache.WriteReq_mshr_miss_rate::total     0.002855                       # mshr miss rate for WriteReq accesses
system.cpu.dcache.WriteReq_avg_mshr_miss_latency::.cpu.data 108351.948307                       # average WriteReq mshr miss latency
system.cpu.dcache.WriteReq_avg_mshr_miss_latency::total 108351.948307                       # average WriteReq mshr miss latency
system.cpu.dcache.SoftPFReq_hits::.cpu.data         3306                       # number of SoftPFReq hits
system.cpu.dcache.SoftPFReq_hits::total          3306                       # number of SoftPFReq hits
system.cpu.dcache.SoftPFReq_misses::.cpu.data           55                       # number of SoftPFReq misses
system.cpu.dcache.SoftPFReq_misses::total           55                       # number of SoftPFReq misses
system.cpu.dcache.SoftPFReq_accesses::.cpu.data         3361                       # number of SoftPFReq accesses(hits+misses)
system.cpu.dcache.SoftPFReq_accesses::total         3361                       # number of SoftPFReq accesses(hits+misses)
system.cpu.dcache.SoftPFReq_miss_rate::.cpu.data     0.016364                       # miss rate for SoftPFReq accesses
system.cpu.dcache.SoftPFReq_miss_rate::total     0.016364                       # miss rate for SoftPFReq accesses
system.cpu.dcache.SoftPFReq_mshr_misses::.cpu.data           50                       # number of SoftPFReq MSHR misses
system.cpu.dcache.SoftPFReq_mshr_misses::total           50                       # number of SoftPFReq MSHR misses
system.cpu.dcache.SoftPFReq_mshr_miss_latency::.cpu.data      3034000                       # number of SoftPFReq MSHR miss cycles
system.cpu.dcache.SoftPFReq_mshr_miss_latency::total      3034000                       # number of SoftPFReq MSHR miss cycles
system.cpu.dcache.SoftPFReq_mshr_miss_rate::.cpu.data     0.014877                       # mshr miss rate for SoftPFReq accesses
system.cpu.dcache.SoftPFReq_mshr_miss_rate::total     0.014877                       # mshr miss rate for SoftPFReq accesses
system.cpu.dcache.SoftPFReq_avg_mshr_miss_latency::.cpu.data        60680                       # average SoftPFReq mshr miss latency
system.cpu.dcache.SoftPFReq_avg_mshr_miss_latency::total        60680                       # average SoftPFReq mshr miss latency
system.cpu.dcache.LoadLockedReq_hits::.cpu.data        89082                       # number of LoadLockedReq hits
system.cpu.dcache.LoadLockedReq_hits::total        89082                       # number of LoadLockedReq hits
system.cpu.dcache.LoadLockedReq_accesses::.cpu.data        89082                       # number of LoadLockedReq accesses(hits+misses)
system.cpu.dcache.LoadLockedReq_accesses::total        89082                       # number of LoadLockedReq accesses(hits+misses)
system.cpu.dcache.StoreCondReq_hits::.cpu.data        89082                       # number of StoreCondReq hits
system.cpu.dcache.StoreCondReq_hits::total        89082                       # number of StoreCondReq hits
system.cpu.dcache.StoreCondReq_accesses::.cpu.data        89082                       # number of StoreCondReq accesses(hits+misses)
system.cpu.dcache.StoreCondReq_accesses::total        89082                       # number of StoreCondReq accesses(hits+misses)
system.cpu.dcache.tags.pwrStateResidencyTicks::UNDEFINED 114540392000                       # Cumulative time (in ticks) in various power states
system.cpu.dcache.tags.tagsinuse           511.307380                       # Cycle average of tags in use
system.cpu.dcache.tags.total_refs            35894658                       # Total number of references to valid blocks.
system.cpu.dcache.tags.sampled_refs             64873                       # Sample count of references to valid blocks.
system.cpu.dcache.tags.avg_refs            553.306584                       # Average number of references to valid blocks.
system.cpu.dcache.tags.warmup_cycle            240000                       # Cycle when the warmup percentage was hit.
system.cpu.dcache.tags.occ_blocks::.cpu.data   511.307380                       # Average occupied blocks per requestor
system.cpu.dcache.tags.occ_percent::.cpu.data     0.998647                       # Average percentage of cache occupancy
system.cpu.dcache.tags.occ_percent::total     0.998647                       # Average percentage of cache occupancy
system.cpu.dcache.tags.occ_task_id_blocks::1024          512                       # Occupied blocks per task id
system.cpu.dcache.tags.age_task_id_blocks_1024::0            5                       # Occupied blocks per task id
system.cpu.dcache.tags.age_task_id_blocks_1024::1           39                       # Occupied blocks per task id
system.cpu.dcache.tags.age_task_id_blocks_1024::2          291                       # Occupied blocks per task id
system.cpu.dcache.tags.age_task_id_blocks_1024::3          149                       # Occupied blocks per task id
system.cpu.dcache.tags.age_task_id_blocks_1024::4           28                       # Occupied blocks per task id
system.cpu.dcache.tags.occ_task_id_percent::1024            1                       # Percentage of cache occupancy per task id
system.cpu.dcache.tags.tag_accesses          71902627                       # Number of tag accesses
system.cpu.dcache.tags.data_accesses         71902627                       # Number of data accesses
system.cpu.itb.walker.pwrStateResidencyTicks::UNDEFINED 114540392000                       # Cumulative time (in ticks) in various power states
system.cpu.itb.stage2_mmu.stage2_tlb.walker.pwrStateResidencyTicks::UNDEFINED 114540392000                       # Cumulative time (in ticks) in various power states

---------- End Simulation Statistics   ----------
