
---------- Begin Simulation Statistics ----------
final_tick                               172433880000                       # Number of ticks from beginning of simulation (restored from checkpoints and never reset)
host_inst_rate                                 324161                       # Simulator instruction rate (inst/s)
host_mem_usage                                 684796                       # Number of bytes of host memory used
host_op_rate                                   324797                       # Simulator op (including micro ops) rate (op/s)
host_seconds                                   308.49                       # Real time elapsed on the host
host_tick_rate                              558963119                       # Simulator tick rate (ticks/s)
sim_freq                                 1000000000000                       # Frequency of simulated ticks
sim_insts                                   100000001                       # Number of instructions simulated
sim_ops                                     100196363                       # Number of ops (including micro ops) simulated
sim_seconds                                  0.172434                       # Number of seconds simulated
sim_ticks                                172433880000                       # Number of ticks simulated
system.cpu.branchPred.BTBCorrect                    0                       # Number of correct BTB predictions (this stat may not work properly.
system.cpu.branchPred.BTBHitPct             99.692900                       # BTB Hit Percentage
system.cpu.branchPred.BTBHits                 2095469                       # Number of BTB hits
system.cpu.branchPred.BTBLookups              2101924                       # Number of BTB lookups
system.cpu.branchPred.RASInCorrect                  5                       # Number of incorrect RAS predictions.
system.cpu.branchPred.condIncorrect             81341                       # Number of conditional branches incorrect
system.cpu.branchPred.condPredicted           3727860                       # Number of conditional branches predicted
system.cpu.branchPred.indirectHits                291                       # Number of indirect target hits.
system.cpu.branchPred.indirectLookups             809                       # Number of indirect predictor lookups.
system.cpu.branchPred.indirectMisses              518                       # Number of indirect misses.
system.cpu.branchPred.lookups                 4477997                       # Number of BP lookups
system.cpu.branchPred.usedRAS                   65351                       # Number of times the RAS was used to get a target.
system.cpu.branchPredindirectMispredicted          171                       # Number of mispredicted indirect branches.
system.cpu.committedInsts                   100000001                       # Number of instructions committed
system.cpu.committedOps                     100196363                       # Number of ops (including micro ops) committed
system.cpu.cpi                               1.724339                       # CPI: cycles per instruction
system.cpu.discardedOps                        190899                       # Number of ops (including micro ops) which were discarded before commit
system.cpu.dtb.accesses                             0                       # DTB accesses
system.cpu.dtb.align_faults                         0                       # Number of TLB faults due to alignment restrictions
system.cpu.dtb.domain_faults                        0                       # Number of TLB faults due to domain restrictions
system.cpu.dtb.flush_entries                        0                       # Number of entries that have been flushed from TLB
system.cpu.dtb.flush_tlb                            0                       # Number of times complete TLB was flushed
system.cpu.dtb.flush_tlb_asid                       0                       # Number of times TLB was flushed by ASID
system.cpu.dtb.flush_tlb_mva                        0                       # Number of times TLB was flushed by MVA
system.cpu.dtb.flush_tlb_mva_asid                   0                       # Number of times TLB was flushed by MVA & ASID
system.cpu.dtb.hits                                 0                       # DTB hits
system.cpu.dtb.inst_accesses                        0                       # ITB inst accesses
system.cpu.dtb.inst_hits                            0                       # ITB inst hits
system.cpu.dtb.inst_misses                          0                       # ITB inst misses
system.cpu.dtb.misses                               0                       # DTB misses
system.cpu.dtb.perms_faults                         0                       # Number of TLB faults due to permissions restrictions
system.cpu.dtb.prefetch_faults                      0                       # Number of TLB faults due to prefetch
system.cpu.dtb.read_accesses                        0                       # DTB read accesses
system.cpu.dtb.read_hits                            0                       # DTB read hits
system.cpu.dtb.read_misses                          0                       # DTB read misses
system.cpu.dtb.stage2_mmu.stage2_tlb.accesses            0                       # DTB accesses
system.cpu.dtb.stage2_mmu.stage2_tlb.align_faults            0                       # Number of TLB faults due to alignment restrictions
system.cpu.dtb.stage2_mmu.stage2_tlb.domain_faults            0                       # Number of TLB faults due to domain restrictions
system.cpu.dtb.stage2_mmu.stage2_tlb.flush_entries            0                       # Number of entries that have been flushed from TLB
system.cpu.dtb.stage2_mmu.stage2_tlb.flush_tlb            0                       # Number of times complete TLB was flushed
system.cpu.dtb.stage2_mmu.stage2_tlb.flush_tlb_asid            0                       # Number of times TLB was flushed by ASID
system.cpu.dtb.stage2_mmu.stage2_tlb.flush_tlb_mva            0                       # Number of times TLB was flushed by MVA
system.cpu.dtb.stage2_mmu.stage2_tlb.flush_tlb_mva_asid            0                       # Number of times TLB was flushed by MVA & ASID
system.cpu.dtb.stage2_mmu.stage2_tlb.hits            0                       # DTB hits
system.cpu.dtb.stage2_mmu.stage2_tlb.inst_accesses            0                       # ITB inst accesses
system.cpu.dtb.stage2_mmu.stage2_tlb.inst_hits            0                       # ITB inst hits
system.cpu.dtb.stage2_mmu.stage2_tlb.inst_misses            0                       # ITB inst misses
system.cpu.dtb.stage2_mmu.stage2_tlb.misses            0                       # DTB misses
system.cpu.dtb.stage2_mmu.stage2_tlb.perms_faults            0                       # Number of TLB faults due to permissions restrictions
system.cpu.dtb.stage2_mmu.stage2_tlb.prefetch_faults            0                       # Number of TLB faults due to prefetch
system.cpu.dtb.stage2_mmu.stage2_tlb.read_accesses            0                       # DTB read accesses
system.cpu.dtb.stage2_mmu.stage2_tlb.read_hits            0                       # DTB read hits
system.cpu.dtb.stage2_mmu.stage2_tlb.read_misses            0                       # DTB read misses
system.cpu.dtb.stage2_mmu.stage2_tlb.walker.walkRequestOrigin_Requested::Data            0                       # Table walker requests started/completed, data/inst
system.cpu.dtb.stage2_mmu.stage2_tlb.walker.walkRequestOrigin_Requested::Inst            0                       # Table walker requests started/completed, data/inst
system.cpu.dtb.stage2_mmu.stage2_tlb.walker.walkRequestOrigin_Requested::total            0                       # Table walker requests started/completed, data/inst
system.cpu.dtb.stage2_mmu.stage2_tlb.walker.walkRequestOrigin_Completed::Data            0                       # Table walker requests started/completed, data/inst
system.cpu.dtb.stage2_mmu.stage2_tlb.walker.walkRequestOrigin_Completed::Inst            0                       # Table walker requests started/completed, data/inst
system.cpu.dtb.stage2_mmu.stage2_tlb.walker.walkRequestOrigin_Completed::total            0                       # Table walker requests started/completed, data/inst
system.cpu.dtb.stage2_mmu.stage2_tlb.walker.walkRequestOrigin::total            0                       # Table walker requests started/completed, data/inst
system.cpu.dtb.stage2_mmu.stage2_tlb.walker.walks            0                       # Table walker walks requested
system.cpu.dtb.stage2_mmu.stage2_tlb.write_accesses            0                       # DTB write accesses
system.cpu.dtb.stage2_mmu.stage2_tlb.write_hits            0                       # DTB write hits
system.cpu.dtb.stage2_mmu.stage2_tlb.write_misses            0                       # DTB write misses
system.cpu.dtb.walker.walkRequestOrigin_Requested::Data            0                       # Table walker requests started/completed, data/inst
system.cpu.dtb.walker.walkRequestOrigin_Requested::Inst            0                       # Table walker requests started/completed, data/inst
system.cpu.dtb.walker.walkRequestOrigin_Requested::total            0                       # Table walker requests started/completed, data/inst
system.cpu.dtb.walker.walkRequestOrigin_Completed::Data            0                       # Table walker requests started/completed, data/inst
system.cpu.dtb.walker.walkRequestOrigin_Completed::Inst            0                       # Table walker requests started/completed, data/inst
system.cpu.dtb.walker.walkRequestOrigin_Completed::total            0                       # Table walker requests started/completed, data/inst
system.cpu.dtb.walker.walkRequestOrigin::total            0                       # Table walker requests started/completed, data/inst
system.cpu.dtb.walker.walks                         0                       # Table walker walks requested
system.cpu.dtb.write_accesses                       0                       # DTB write accesses
system.cpu.dtb.write_hits                           0                       # DTB write hits
system.cpu.dtb.write_misses                         0                       # DTB write misses
system.cpu.fetch2.amo_instructions                  0                       # Number of memory atomic instructions successfully decoded
system.cpu.fetch2.fp_instructions                   0                       # Number of floating point instructions successfully decoded
system.cpu.fetch2.int_instructions           42610622                       # Number of integer instructions successfully decoded
system.cpu.fetch2.load_instructions          43402798                       # Number of memory load instructions successfully decoded
system.cpu.fetch2.store_instructions         11001560                       # Number of memory store instructions successfully decoded
system.cpu.fetch2.vec_instructions                  0                       # Number of SIMD instructions successfully decoded
system.cpu.idleCycles                        39203037                       # Total number of cycles that the object has spent stopped
system.cpu.ipc                               0.579932                       # IPC: instructions per cycle
system.cpu.itb.accesses                             0                       # DTB accesses
system.cpu.itb.align_faults                         0                       # Number of TLB faults due to alignment restrictions
system.cpu.itb.domain_faults                        0                       # Number of TLB faults due to domain restrictions
system.cpu.itb.flush_entries                        0                       # Number of entries that have been flushed from TLB
system.cpu.itb.flush_tlb                            0                       # Number of times complete TLB was flushed
system.cpu.itb.flush_tlb_asid                       0                       # Number of times TLB was flushed by ASID
system.cpu.itb.flush_tlb_mva                        0                       # Number of times TLB was flushed by MVA
system.cpu.itb.flush_tlb_mva_asid                   0                       # Number of times TLB was flushed by MVA & ASID
system.cpu.itb.hits                                 0                       # DTB hits
system.cpu.itb.inst_accesses                        0                       # ITB inst accesses
system.cpu.itb.inst_hits                            0                       # ITB inst hits
system.cpu.itb.inst_misses                          0                       # ITB inst misses
system.cpu.itb.misses                               0                       # DTB misses
system.cpu.itb.perms_faults                         0                       # Number of TLB faults due to permissions restrictions
system.cpu.itb.prefetch_faults                      0                       # Number of TLB faults due to prefetch
system.cpu.itb.read_accesses                        0                       # DTB read accesses
system.cpu.itb.read_hits                            0                       # DTB read hits
system.cpu.itb.read_misses                          0                       # DTB read misses
system.cpu.itb.stage2_mmu.stage2_tlb.accesses            0                       # DTB accesses
system.cpu.itb.stage2_mmu.stage2_tlb.align_faults            0                       # Number of TLB faults due to alignment restrictions
system.cpu.itb.stage2_mmu.stage2_tlb.domain_faults            0                       # Number of TLB faults due to domain restrictions
system.cpu.itb.stage2_mmu.stage2_tlb.flush_entries            0                       # Number of entries that have been flushed from TLB
system.cpu.itb.stage2_mmu.stage2_tlb.flush_tlb            0                       # Number of times complete TLB was flushed
system.cpu.itb.stage2_mmu.stage2_tlb.flush_tlb_asid            0                       # Number of times TLB was flushed by ASID
system.cpu.itb.stage2_mmu.stage2_tlb.flush_tlb_mva            0                       # Number of times TLB was flushed by MVA
system.cpu.itb.stage2_mmu.stage2_tlb.flush_tlb_mva_asid            0                       # Number of times TLB was flushed by MVA & ASID
system.cpu.itb.stage2_mmu.stage2_tlb.hits            0                       # DTB hits
system.cpu.itb.stage2_mmu.stage2_tlb.inst_accesses            0                       # ITB inst accesses
system.cpu.itb.stage2_mmu.stage2_tlb.inst_hits            0                       # ITB inst hits
system.cpu.itb.stage2_mmu.stage2_tlb.inst_misses            0                       # ITB inst misses
system.cpu.itb.stage2_mmu.stage2_tlb.misses            0                       # DTB misses
system.cpu.itb.stage2_mmu.stage2_tlb.perms_faults            0                       # Number of TLB faults due to permissions restrictions
system.cpu.itb.stage2_mmu.stage2_tlb.prefetch_faults            0                       # Number of TLB faults due to prefetch
system.cpu.itb.stage2_mmu.stage2_tlb.read_accesses            0                       # DTB read accesses
system.cpu.itb.stage2_mmu.stage2_tlb.read_hits            0                       # DTB read hits
system.cpu.itb.stage2_mmu.stage2_tlb.read_misses            0                       # DTB read misses
system.cpu.itb.stage2_mmu.stage2_tlb.walker.walkRequestOrigin_Requested::Data            0                       # Table walker requests started/completed, data/inst
system.cpu.itb.stage2_mmu.stage2_tlb.walker.walkRequestOrigin_Requested::Inst            0                       # Table walker requests started/completed, data/inst
system.cpu.itb.stage2_mmu.stage2_tlb.walker.walkRequestOrigin_Requested::total            0                       # Table walker requests started/completed, data/inst
system.cpu.itb.stage2_mmu.stage2_tlb.walker.walkRequestOrigin_Completed::Data            0                       # Table walker requests started/completed, data/inst
system.cpu.itb.stage2_mmu.stage2_tlb.walker.walkRequestOrigin_Completed::Inst            0                       # Table walker requests started/completed, data/inst
system.cpu.itb.stage2_mmu.stage2_tlb.walker.walkRequestOrigin_Completed::total            0                       # Table walker requests started/completed, data/inst
system.cpu.itb.stage2_mmu.stage2_tlb.walker.walkRequestOrigin::total            0                       # Table walker requests started/completed, data/inst
system.cpu.itb.stage2_mmu.stage2_tlb.walker.walks            0                       # Table walker walks requested
system.cpu.itb.stage2_mmu.stage2_tlb.write_accesses            0                       # DTB write accesses
system.cpu.itb.stage2_mmu.stage2_tlb.write_hits            0                       # DTB write hits
system.cpu.itb.stage2_mmu.stage2_tlb.write_misses            0                       # DTB write misses
system.cpu.itb.walker.walkRequestOrigin_Requested::Data            0                       # Table walker requests started/completed, data/inst
system.cpu.itb.walker.walkRequestOrigin_Requested::Inst            0                       # Table walker requests started/completed, data/inst
system.cpu.itb.walker.walkRequestOrigin_Requested::total            0                       # Table walker requests started/completed, data/inst
system.cpu.itb.walker.walkRequestOrigin_Completed::Data            0                       # Table walker requests started/completed, data/inst
system.cpu.itb.walker.walkRequestOrigin_Completed::Inst            0                       # Table walker requests started/completed, data/inst
system.cpu.itb.walker.walkRequestOrigin_Completed::total            0                       # Table walker requests started/completed, data/inst
system.cpu.itb.walker.walkRequestOrigin::total            0                       # Table walker requests started/completed, data/inst
system.cpu.itb.walker.walks                         0                       # Table walker walks requested
system.cpu.itb.write_accesses                       0                       # DTB write accesses
system.cpu.itb.write_hits                           0                       # DTB write hits
system.cpu.itb.write_misses                         0                       # DTB write misses
system.cpu.numCycles                        172433880                       # number of cpu cycles simulated
system.cpu.numFetchSuspends                         0                       # Number of times Execute suspended instruction fetching
system.cpu.numWorkItemsCompleted                    0                       # number of work items this cpu completed
system.cpu.numWorkItemsStarted                      0                       # number of work items this cpu started
system.cpu.op_class_0::No_OpClass                   0      0.00%      0.00% # Class of committed instruction
system.cpu.op_class_0::IntAlu                46531400     46.44%     46.44% # Class of committed instruction
system.cpu.op_class_0::IntMult                  20720      0.02%     46.46% # Class of committed instruction
system.cpu.op_class_0::IntDiv                       0      0.00%     46.46% # Class of committed instruction
system.cpu.op_class_0::FloatAdd                     0      0.00%     46.46% # Class of committed instruction
system.cpu.op_class_0::FloatCmp                     0      0.00%     46.46% # Class of committed instruction
system.cpu.op_class_0::FloatCvt                     0      0.00%     46.46% # Class of committed instruction
system.cpu.op_class_0::FloatMult                    0      0.00%     46.46% # Class of committed instruction
system.cpu.op_class_0::FloatMultAcc                 0      0.00%     46.46% # Class of committed instruction
system.cpu.op_class_0::FloatDiv                     0      0.00%     46.46% # Class of committed instruction
system.cpu.op_class_0::FloatMisc                    0      0.00%     46.46% # Class of committed instruction
system.cpu.op_class_0::FloatSqrt                    0      0.00%     46.46% # Class of committed instruction
system.cpu.op_class_0::SimdAdd                      0      0.00%     46.46% # Class of committed instruction
system.cpu.op_class_0::SimdAddAcc                   0      0.00%     46.46% # Class of committed instruction
system.cpu.op_class_0::SimdAlu                      0      0.00%     46.46% # Class of committed instruction
system.cpu.op_class_0::SimdCmp                      0      0.00%     46.46% # Class of committed instruction
system.cpu.op_class_0::SimdCvt                      0      0.00%     46.46% # Class of committed instruction
system.cpu.op_class_0::SimdMisc                     0      0.00%     46.46% # Class of committed instruction
system.cpu.op_class_0::SimdMult                     0      0.00%     46.46% # Class of committed instruction
system.cpu.op_class_0::SimdMultAcc                  0      0.00%     46.46% # Class of committed instruction
system.cpu.op_class_0::SimdShift                    0      0.00%     46.46% # Class of committed instruction
system.cpu.op_class_0::SimdShiftAcc                 0      0.00%     46.46% # Class of committed instruction
system.cpu.op_class_0::SimdDiv                      0      0.00%     46.46% # Class of committed instruction
system.cpu.op_class_0::SimdSqrt                     0      0.00%     46.46% # Class of committed instruction
system.cpu.op_class_0::SimdFloatAdd                 0      0.00%     46.46% # Class of committed instruction
system.cpu.op_class_0::SimdFloatAlu                 0      0.00%     46.46% # Class of committed instruction
system.cpu.op_class_0::SimdFloatCmp                 0      0.00%     46.46% # Class of committed instruction
system.cpu.op_class_0::SimdFloatCvt                 0      0.00%     46.46% # Class of committed instruction
system.cpu.op_class_0::SimdFloatDiv                 0      0.00%     46.46% # Class of committed instruction
system.cpu.op_class_0::SimdFloatMisc               18      0.00%     46.46% # Class of committed instruction
system.cpu.op_class_0::SimdFloatMult                0      0.00%     46.46% # Class of committed instruction
system.cpu.op_class_0::SimdFloatMultAcc             0      0.00%     46.46% # Class of committed instruction
system.cpu.op_class_0::SimdFloatSqrt                0      0.00%     46.46% # Class of committed instruction
system.cpu.op_class_0::SimdReduceAdd                0      0.00%     46.46% # Class of committed instruction
system.cpu.op_class_0::SimdReduceAlu                0      0.00%     46.46% # Class of committed instruction
system.cpu.op_class_0::SimdReduceCmp                0      0.00%     46.46% # Class of committed instruction
system.cpu.op_class_0::SimdFloatReduceAdd            0      0.00%     46.46% # Class of committed instruction
system.cpu.op_class_0::SimdFloatReduceCmp            0      0.00%     46.46% # Class of committed instruction
system.cpu.op_class_0::SimdAes                      0      0.00%     46.46% # Class of committed instruction
system.cpu.op_class_0::SimdAesMix                   0      0.00%     46.46% # Class of committed instruction
system.cpu.op_class_0::SimdSha1Hash                 0      0.00%     46.46% # Class of committed instruction
system.cpu.op_class_0::SimdSha1Hash2                0      0.00%     46.46% # Class of committed instruction
system.cpu.op_class_0::SimdSha256Hash               0      0.00%     46.46% # Class of committed instruction
system.cpu.op_class_0::SimdSha256Hash2              0      0.00%     46.46% # Class of committed instruction
system.cpu.op_class_0::SimdShaSigma2                0      0.00%     46.46% # Class of committed instruction
system.cpu.op_class_0::SimdShaSigma3                0      0.00%     46.46% # Class of committed instruction
system.cpu.op_class_0::SimdPredAlu                  0      0.00%     46.46% # Class of committed instruction
system.cpu.op_class_0::MemRead               42693601     42.61%     89.07% # Class of committed instruction
system.cpu.op_class_0::MemWrite              10950624     10.93%    100.00% # Class of committed instruction
system.cpu.op_class_0::FloatMemRead                 0      0.00%    100.00% # Class of committed instruction
system.cpu.op_class_0::FloatMemWrite                0      0.00%    100.00% # Class of committed instruction
system.cpu.op_class_0::IprAccess                    0      0.00%    100.00% # Class of committed instruction
system.cpu.op_class_0::InstPrefetch                 0      0.00%    100.00% # Class of committed instruction
system.cpu.op_class_0::total                100196363                       # Class of committed instruction
system.cpu.tickCycles                       133230843                       # Number of cycles that the object actually ticked
system.cpu.workload.numSyscalls                    84                       # Number of system calls
system.membus.snoop_filter.hit_multi_requests            0                       # Number of requests hitting in the snoop filter with multiple (>1) holders of the requested data.
system.membus.snoop_filter.hit_multi_snoops            0                       # Number of snoops hitting in the snoop filter with multiple (>1) holders of the requested data.
system.membus.snoop_filter.hit_single_requests       278002                       # Number of requests hitting in the snoop filter with a single holder of the requested data.
system.membus.snoop_filter.hit_single_snoops            0                       # Number of snoops hitting in the snoop filter with a single holder of the requested data.
system.membus.snoop_filter.tot_requests        564785                       # Total number of requests made to the snoop filter.
system.membus.snoop_filter.tot_snoops               0                       # Total number of snoops made to the snoop filter.
system.tol2bus.snoop_filter.hit_multi_requests         1525                       # Number of requests hitting in the snoop filter with multiple (>1) holders of the requested data.
system.tol2bus.snoop_filter.hit_multi_snoops            1                       # Number of snoops hitting in the snoop filter with multiple (>1) holders of the requested data.
system.tol2bus.snoop_filter.hit_single_requests      1054220                       # Number of requests hitting in the snoop filter with a single holder of the requested data.
system.tol2bus.snoop_filter.hit_single_snoops         3594                       # Number of snoops hitting in the snoop filter with a single holder of the requested data.
system.tol2bus.snoop_filter.tot_requests      2109550                       # Total number of requests made to the snoop filter.
system.tol2bus.snoop_filter.tot_snoops           3595                       # Total number of snoops made to the snoop filter.
system.membus.pwrStateResidencyTicks::UNDEFINED 172433880000                       # Cumulative time (in ticks) in various power states
system.membus.trans_dist::ReadResp             109754                       # Transaction distribution
system.membus.trans_dist::WritebackDirty       199490                       # Transaction distribution
system.membus.trans_dist::CleanEvict            78503                       # Transaction distribution
system.membus.trans_dist::ReadExReq            177038                       # Transaction distribution
system.membus.trans_dist::ReadExResp           177038                       # Transaction distribution
system.membus.trans_dist::ReadSharedReq        109754                       # Transaction distribution
system.membus.pkt_count_system.l2.mem_side::system.mem_ctrls.port       851577                       # Packet count per connected master and slave (bytes)
system.membus.pkt_count::total                 851577                       # Packet count per connected master and slave (bytes)
system.membus.pkt_size_system.l2.mem_side::system.mem_ctrls.port     31122048                       # Cumulative packet size per connected master and slave (bytes)
system.membus.pkt_size::total                31122048                       # Cumulative packet size per connected master and slave (bytes)
system.membus.snoops                                0                       # Total snoops (count)
system.membus.snoopTraffic                          0                       # Total snoop traffic (bytes)
system.membus.snoop_fanout::samples            286792                       # Request fanout histogram
system.membus.snoop_fanout::mean                    0                       # Request fanout histogram
system.membus.snoop_fanout::stdev                   0                       # Request fanout histogram
system.membus.snoop_fanout::underflows              0      0.00%      0.00% # Request fanout histogram
system.membus.snoop_fanout::0                  286792    100.00%    100.00% # Request fanout histogram
system.membus.snoop_fanout::1                       0      0.00%    100.00% # Request fanout histogram
system.membus.snoop_fanout::overflows               0      0.00%    100.00% # Request fanout histogram
system.membus.snoop_fanout::min_value               0                       # Request fanout histogram
system.membus.snoop_fanout::max_value               0                       # Request fanout histogram
system.membus.snoop_fanout::total              286792                       # Request fanout histogram
system.membus.respLayer1.occupancy         1561153250                       # Layer occupancy (ticks)
system.membus.respLayer1.utilization              0.9                       # Layer utilization (%)
system.membus.reqLayer0.occupancy          1362745000                       # Layer occupancy (ticks)
system.membus.reqLayer0.utilization               0.8                       # Layer utilization (%)
system.tol2bus.pwrStateResidencyTicks::UNDEFINED 172433880000                       # Cumulative time (in ticks) in various power states
system.tol2bus.trans_dist::ReadResp            671798                       # Transaction distribution
system.tol2bus.trans_dist::WritebackDirty      1144918                       # Transaction distribution
system.tol2bus.trans_dist::WritebackClean          100                       # Transaction distribution
system.tol2bus.trans_dist::CleanEvict          190508                       # Transaction distribution
system.tol2bus.trans_dist::ReadExReq           383533                       # Transaction distribution
system.tol2bus.trans_dist::ReadExResp          383532                       # Transaction distribution
system.tol2bus.trans_dist::ReadCleanReq           699                       # Transaction distribution
system.tol2bus.trans_dist::ReadSharedReq       671099                       # Transaction distribution
system.tol2bus.pkt_count_system.cpu.icache.mem_side::system.l2.cpu_side         1498                       # Packet count per connected master and slave (bytes)
system.tol2bus.pkt_count_system.cpu.dcache.mem_side::system.l2.cpu_side      3163382                       # Packet count per connected master and slave (bytes)
system.tol2bus.pkt_count::total               3164880                       # Packet count per connected master and slave (bytes)
system.tol2bus.pkt_size_system.cpu.icache.mem_side::system.l2.cpu_side        51136                       # Cumulative packet size per connected master and slave (bytes)
system.tol2bus.pkt_size_system.cpu.dcache.mem_side::system.l2.cpu_side    128003712                       # Cumulative packet size per connected master and slave (bytes)
system.tol2bus.pkt_size::total              128054848                       # Cumulative packet size per connected master and slave (bytes)
system.tol2bus.snoops                          281307                       # Total snoops (count)
system.tol2bus.snoopTraffic                  12767424                       # Total snoop traffic (bytes)
system.tol2bus.snoop_fanout::samples          1336638                       # Request fanout histogram
system.tol2bus.snoop_fanout::mean            0.003832                       # Request fanout histogram
system.tol2bus.snoop_fanout::stdev           0.061797                       # Request fanout histogram
system.tol2bus.snoop_fanout::underflows             0      0.00%      0.00% # Request fanout histogram
system.tol2bus.snoop_fanout::0                1331517     99.62%     99.62% # Request fanout histogram
system.tol2bus.snoop_fanout::1                   5120      0.38%    100.00% # Request fanout histogram
system.tol2bus.snoop_fanout::2                      1      0.00%    100.00% # Request fanout histogram
system.tol2bus.snoop_fanout::overflows              0      0.00%    100.00% # Request fanout histogram
system.tol2bus.snoop_fanout::min_value              0                       # Request fanout histogram
system.tol2bus.snoop_fanout::max_value              2                       # Request fanout histogram
system.tol2bus.snoop_fanout::total            1336638                       # Request fanout histogram
system.tol2bus.reqLayer0.occupancy         4000604000                       # Layer occupancy (ticks)
system.tol2bus.reqLayer0.utilization              2.3                       # Layer utilization (%)
system.tol2bus.respLayer1.occupancy        3163896996                       # Layer occupancy (ticks)
system.tol2bus.respLayer1.utilization             1.8                       # Layer utilization (%)
system.tol2bus.respLayer0.occupancy           2097000                       # Layer occupancy (ticks)
system.tol2bus.respLayer0.utilization             0.0                       # Layer utilization (%)
system.voltage_domain.voltage                       1                       # Voltage in Volts
system.clk_domain.clock                          1000                       # Clock period in ticks
system.l2.pwrStateResidencyTicks::UNDEFINED 172433880000                       # Cumulative time (in ticks) in various power states
system.l2.demand_hits::.cpu.inst                   37                       # number of demand (read+write) hits
system.l2.demand_hits::.cpu.data               768498                       # number of demand (read+write) hits
system.l2.demand_hits::total                   768535                       # number of demand (read+write) hits
system.l2.overall_hits::.cpu.inst                  37                       # number of overall hits
system.l2.overall_hits::.cpu.data              768498                       # number of overall hits
system.l2.overall_hits::total                  768535                       # number of overall hits
system.l2.demand_misses::.cpu.inst                662                       # number of demand (read+write) misses
system.l2.demand_misses::.cpu.data             286134                       # number of demand (read+write) misses
system.l2.demand_misses::total                 286796                       # number of demand (read+write) misses
system.l2.overall_misses::.cpu.inst               662                       # number of overall misses
system.l2.overall_misses::.cpu.data            286134                       # number of overall misses
system.l2.overall_misses::total                286796                       # number of overall misses
system.l2.demand_miss_latency::.cpu.inst     65056000                       # number of demand (read+write) miss cycles
system.l2.demand_miss_latency::.cpu.data  30554543000                       # number of demand (read+write) miss cycles
system.l2.demand_miss_latency::total      30619599000                       # number of demand (read+write) miss cycles
system.l2.overall_miss_latency::.cpu.inst     65056000                       # number of overall miss cycles
system.l2.overall_miss_latency::.cpu.data  30554543000                       # number of overall miss cycles
system.l2.overall_miss_latency::total     30619599000                       # number of overall miss cycles
system.l2.demand_accesses::.cpu.inst              699                       # number of demand (read+write) accesses
system.l2.demand_accesses::.cpu.data          1054632                       # number of demand (read+write) accesses
system.l2.demand_accesses::total              1055331                       # number of demand (read+write) accesses
system.l2.overall_accesses::.cpu.inst             699                       # number of overall (read+write) accesses
system.l2.overall_accesses::.cpu.data         1054632                       # number of overall (read+write) accesses
system.l2.overall_accesses::total             1055331                       # number of overall (read+write) accesses
system.l2.demand_miss_rate::.cpu.inst        0.947067                       # miss rate for demand accesses
system.l2.demand_miss_rate::.cpu.data        0.271312                       # miss rate for demand accesses
system.l2.demand_miss_rate::total            0.271759                       # miss rate for demand accesses
system.l2.overall_miss_rate::.cpu.inst       0.947067                       # miss rate for overall accesses
system.l2.overall_miss_rate::.cpu.data       0.271312                       # miss rate for overall accesses
system.l2.overall_miss_rate::total           0.271759                       # miss rate for overall accesses
system.l2.demand_avg_miss_latency::.cpu.inst 98271.903323                       # average overall miss latency
system.l2.demand_avg_miss_latency::.cpu.data 106784.034753                       # average overall miss latency
system.l2.demand_avg_miss_latency::total 106764.386533                       # average overall miss latency
system.l2.overall_avg_miss_latency::.cpu.inst 98271.903323                       # average overall miss latency
system.l2.overall_avg_miss_latency::.cpu.data 106784.034753                       # average overall miss latency
system.l2.overall_avg_miss_latency::total 106764.386533                       # average overall miss latency
system.l2.blocked_cycles::no_mshrs                  0                       # number of cycles access was blocked
system.l2.blocked_cycles::no_targets                0                       # number of cycles access was blocked
system.l2.blocked::no_mshrs                         0                       # number of cycles access was blocked
system.l2.blocked::no_targets                       0                       # number of cycles access was blocked
system.l2.avg_blocked_cycles::no_mshrs            nan                       # average number of cycles each access was blocked
system.l2.avg_blocked_cycles::no_targets          nan                       # average number of cycles each access was blocked
system.l2.writebacks::.writebacks              199491                       # number of writebacks
system.l2.writebacks::total                    199491                       # number of writebacks
system.l2.demand_mshr_hits::.cpu.data               4                       # number of demand (read+write) MSHR hits
system.l2.demand_mshr_hits::total                   4                       # number of demand (read+write) MSHR hits
system.l2.overall_mshr_hits::.cpu.data              4                       # number of overall MSHR hits
system.l2.overall_mshr_hits::total                  4                       # number of overall MSHR hits
system.l2.demand_mshr_misses::.cpu.inst           662                       # number of demand (read+write) MSHR misses
system.l2.demand_mshr_misses::.cpu.data        286130                       # number of demand (read+write) MSHR misses
system.l2.demand_mshr_misses::total            286792                       # number of demand (read+write) MSHR misses
system.l2.overall_mshr_misses::.cpu.inst          662                       # number of overall MSHR misses
system.l2.overall_mshr_misses::.cpu.data       286130                       # number of overall MSHR misses
system.l2.overall_mshr_misses::total           286792                       # number of overall MSHR misses
system.l2.demand_mshr_miss_latency::.cpu.inst     51816000                       # number of demand (read+write) MSHR miss cycles
system.l2.demand_mshr_miss_latency::.cpu.data  24831653000                       # number of demand (read+write) MSHR miss cycles
system.l2.demand_mshr_miss_latency::total  24883469000                       # number of demand (read+write) MSHR miss cycles
system.l2.overall_mshr_miss_latency::.cpu.inst     51816000                       # number of overall MSHR miss cycles
system.l2.overall_mshr_miss_latency::.cpu.data  24831653000                       # number of overall MSHR miss cycles
system.l2.overall_mshr_miss_latency::total  24883469000                       # number of overall MSHR miss cycles
system.l2.demand_mshr_miss_rate::.cpu.inst     0.947067                       # mshr miss rate for demand accesses
system.l2.demand_mshr_miss_rate::.cpu.data     0.271308                       # mshr miss rate for demand accesses
system.l2.demand_mshr_miss_rate::total       0.271755                       # mshr miss rate for demand accesses
system.l2.overall_mshr_miss_rate::.cpu.inst     0.947067                       # mshr miss rate for overall accesses
system.l2.overall_mshr_miss_rate::.cpu.data     0.271308                       # mshr miss rate for overall accesses
system.l2.overall_mshr_miss_rate::total      0.271755                       # mshr miss rate for overall accesses
system.l2.demand_avg_mshr_miss_latency::.cpu.inst 78271.903323                       # average overall mshr miss latency
system.l2.demand_avg_mshr_miss_latency::.cpu.data 86784.514032                       # average overall mshr miss latency
system.l2.demand_avg_mshr_miss_latency::total 86764.864431                       # average overall mshr miss latency
system.l2.overall_avg_mshr_miss_latency::.cpu.inst 78271.903323                       # average overall mshr miss latency
system.l2.overall_avg_mshr_miss_latency::.cpu.data 86784.514032                       # average overall mshr miss latency
system.l2.overall_avg_mshr_miss_latency::total 86764.864431                       # average overall mshr miss latency
system.l2.replacements                         281307                       # number of replacements
system.l2.WritebackDirty_hits::.writebacks       945427                       # number of WritebackDirty hits
system.l2.WritebackDirty_hits::total           945427                       # number of WritebackDirty hits
system.l2.WritebackDirty_accesses::.writebacks       945427                       # number of WritebackDirty accesses(hits+misses)
system.l2.WritebackDirty_accesses::total       945427                       # number of WritebackDirty accesses(hits+misses)
system.l2.WritebackClean_hits::.writebacks           94                       # number of WritebackClean hits
system.l2.WritebackClean_hits::total               94                       # number of WritebackClean hits
system.l2.WritebackClean_accesses::.writebacks           94                       # number of WritebackClean accesses(hits+misses)
system.l2.WritebackClean_accesses::total           94                       # number of WritebackClean accesses(hits+misses)
system.l2.CleanEvict_mshr_misses::.writebacks          282                       # number of CleanEvict MSHR misses
system.l2.CleanEvict_mshr_misses::total           282                       # number of CleanEvict MSHR misses
system.l2.CleanEvict_mshr_miss_rate::.writebacks          inf                       # mshr miss rate for CleanEvict accesses
system.l2.CleanEvict_mshr_miss_rate::total          inf                       # mshr miss rate for CleanEvict accesses
system.l2.ReadExReq_hits::.cpu.data            206495                       # number of ReadExReq hits
system.l2.ReadExReq_hits::total                206495                       # number of ReadExReq hits
system.l2.ReadExReq_misses::.cpu.data          177038                       # number of ReadExReq misses
system.l2.ReadExReq_misses::total              177038                       # number of ReadExReq misses
system.l2.ReadExReq_miss_latency::.cpu.data  19291665000                       # number of ReadExReq miss cycles
system.l2.ReadExReq_miss_latency::total   19291665000                       # number of ReadExReq miss cycles
system.l2.ReadExReq_accesses::.cpu.data        383533                       # number of ReadExReq accesses(hits+misses)
system.l2.ReadExReq_accesses::total            383533                       # number of ReadExReq accesses(hits+misses)
system.l2.ReadExReq_miss_rate::.cpu.data     0.461598                       # miss rate for ReadExReq accesses
system.l2.ReadExReq_miss_rate::total         0.461598                       # miss rate for ReadExReq accesses
system.l2.ReadExReq_avg_miss_latency::.cpu.data 108969.063139                       # average ReadExReq miss latency
system.l2.ReadExReq_avg_miss_latency::total 108969.063139                       # average ReadExReq miss latency
system.l2.ReadExReq_mshr_misses::.cpu.data       177038                       # number of ReadExReq MSHR misses
system.l2.ReadExReq_mshr_misses::total         177038                       # number of ReadExReq MSHR misses
system.l2.ReadExReq_mshr_miss_latency::.cpu.data  15750905000                       # number of ReadExReq MSHR miss cycles
system.l2.ReadExReq_mshr_miss_latency::total  15750905000                       # number of ReadExReq MSHR miss cycles
system.l2.ReadExReq_mshr_miss_rate::.cpu.data     0.461598                       # mshr miss rate for ReadExReq accesses
system.l2.ReadExReq_mshr_miss_rate::total     0.461598                       # mshr miss rate for ReadExReq accesses
system.l2.ReadExReq_avg_mshr_miss_latency::.cpu.data 88969.063139                       # average ReadExReq mshr miss latency
system.l2.ReadExReq_avg_mshr_miss_latency::total 88969.063139                       # average ReadExReq mshr miss latency
system.l2.ReadCleanReq_hits::.cpu.inst             37                       # number of ReadCleanReq hits
system.l2.ReadCleanReq_hits::total                 37                       # number of ReadCleanReq hits
system.l2.ReadCleanReq_misses::.cpu.inst          662                       # number of ReadCleanReq misses
system.l2.ReadCleanReq_misses::total              662                       # number of ReadCleanReq misses
system.l2.ReadCleanReq_miss_latency::.cpu.inst     65056000                       # number of ReadCleanReq miss cycles
system.l2.ReadCleanReq_miss_latency::total     65056000                       # number of ReadCleanReq miss cycles
system.l2.ReadCleanReq_accesses::.cpu.inst          699                       # number of ReadCleanReq accesses(hits+misses)
system.l2.ReadCleanReq_accesses::total            699                       # number of ReadCleanReq accesses(hits+misses)
system.l2.ReadCleanReq_miss_rate::.cpu.inst     0.947067                       # miss rate for ReadCleanReq accesses
system.l2.ReadCleanReq_miss_rate::total      0.947067                       # miss rate for ReadCleanReq accesses
system.l2.ReadCleanReq_avg_miss_latency::.cpu.inst 98271.903323                       # average ReadCleanReq miss latency
system.l2.ReadCleanReq_avg_miss_latency::total 98271.903323                       # average ReadCleanReq miss latency
system.l2.ReadCleanReq_mshr_misses::.cpu.inst          662                       # number of ReadCleanReq MSHR misses
system.l2.ReadCleanReq_mshr_misses::total          662                       # number of ReadCleanReq MSHR misses
system.l2.ReadCleanReq_mshr_miss_latency::.cpu.inst     51816000                       # number of ReadCleanReq MSHR miss cycles
system.l2.ReadCleanReq_mshr_miss_latency::total     51816000                       # number of ReadCleanReq MSHR miss cycles
system.l2.ReadCleanReq_mshr_miss_rate::.cpu.inst     0.947067                       # mshr miss rate for ReadCleanReq accesses
system.l2.ReadCleanReq_mshr_miss_rate::total     0.947067                       # mshr miss rate for ReadCleanReq accesses
system.l2.ReadCleanReq_avg_mshr_miss_latency::.cpu.inst 78271.903323                       # average ReadCleanReq mshr miss latency
system.l2.ReadCleanReq_avg_mshr_miss_latency::total 78271.903323                       # average ReadCleanReq mshr miss latency
system.l2.ReadSharedReq_hits::.cpu.data        562003                       # number of ReadSharedReq hits
system.l2.ReadSharedReq_hits::total            562003                       # number of ReadSharedReq hits
system.l2.ReadSharedReq_misses::.cpu.data       109096                       # number of ReadSharedReq misses
system.l2.ReadSharedReq_misses::total          109096                       # number of ReadSharedReq misses
system.l2.ReadSharedReq_miss_latency::.cpu.data  11262878000                       # number of ReadSharedReq miss cycles
system.l2.ReadSharedReq_miss_latency::total  11262878000                       # number of ReadSharedReq miss cycles
system.l2.ReadSharedReq_accesses::.cpu.data       671099                       # number of ReadSharedReq accesses(hits+misses)
system.l2.ReadSharedReq_accesses::total        671099                       # number of ReadSharedReq accesses(hits+misses)
system.l2.ReadSharedReq_miss_rate::.cpu.data     0.162563                       # miss rate for ReadSharedReq accesses
system.l2.ReadSharedReq_miss_rate::total     0.162563                       # miss rate for ReadSharedReq accesses
system.l2.ReadSharedReq_avg_miss_latency::.cpu.data 103238.230549                       # average ReadSharedReq miss latency
system.l2.ReadSharedReq_avg_miss_latency::total 103238.230549                       # average ReadSharedReq miss latency
system.l2.ReadSharedReq_mshr_hits::.cpu.data            4                       # number of ReadSharedReq MSHR hits
system.l2.ReadSharedReq_mshr_hits::total            4                       # number of ReadSharedReq MSHR hits
system.l2.ReadSharedReq_mshr_misses::.cpu.data       109092                       # number of ReadSharedReq MSHR misses
system.l2.ReadSharedReq_mshr_misses::total       109092                       # number of ReadSharedReq MSHR misses
system.l2.ReadSharedReq_mshr_miss_latency::.cpu.data   9080748000                       # number of ReadSharedReq MSHR miss cycles
system.l2.ReadSharedReq_mshr_miss_latency::total   9080748000                       # number of ReadSharedReq MSHR miss cycles
system.l2.ReadSharedReq_mshr_miss_rate::.cpu.data     0.162557                       # mshr miss rate for ReadSharedReq accesses
system.l2.ReadSharedReq_mshr_miss_rate::total     0.162557                       # mshr miss rate for ReadSharedReq accesses
system.l2.ReadSharedReq_avg_mshr_miss_latency::.cpu.data 83239.357606                       # average ReadSharedReq mshr miss latency
system.l2.ReadSharedReq_avg_mshr_miss_latency::total 83239.357606                       # average ReadSharedReq mshr miss latency
system.l2.tags.pwrStateResidencyTicks::UNDEFINED 172433880000                       # Cumulative time (in ticks) in various power states
system.l2.tags.tagsinuse                  8089.139040                       # Cycle average of tags in use
system.l2.tags.total_refs                     2107739                       # Total number of references to valid blocks.
system.l2.tags.sampled_refs                    289499                       # Sample count of references to valid blocks.
system.l2.tags.avg_refs                      7.280643                       # Average number of references to valid blocks.
system.l2.tags.warmup_cycle                     87000                       # Cycle when the warmup percentage was hit.
system.l2.tags.occ_blocks::.writebacks      37.854767                       # Average occupied blocks per requestor
system.l2.tags.occ_blocks::.cpu.inst        24.541601                       # Average occupied blocks per requestor
system.l2.tags.occ_blocks::.cpu.data      8026.742672                       # Average occupied blocks per requestor
system.l2.tags.occ_percent::.writebacks      0.004621                       # Average percentage of cache occupancy
system.l2.tags.occ_percent::.cpu.inst        0.002996                       # Average percentage of cache occupancy
system.l2.tags.occ_percent::.cpu.data        0.979827                       # Average percentage of cache occupancy
system.l2.tags.occ_percent::total            0.987444                       # Average percentage of cache occupancy
system.l2.tags.occ_task_id_blocks::1024          8192                       # Occupied blocks per task id
system.l2.tags.age_task_id_blocks_1024::0          102                       # Occupied blocks per task id
system.l2.tags.age_task_id_blocks_1024::1          274                       # Occupied blocks per task id
system.l2.tags.age_task_id_blocks_1024::2         2219                       # Occupied blocks per task id
system.l2.tags.age_task_id_blocks_1024::3         4985                       # Occupied blocks per task id
system.l2.tags.age_task_id_blocks_1024::4          612                       # Occupied blocks per task id
system.l2.tags.occ_task_id_percent::1024            1                       # Percentage of cache occupancy per task id
system.l2.tags.tag_accesses                   4505549                       # Number of tag accesses
system.l2.tags.data_accesses                  4505549                       # Number of data accesses
system.cpu_voltage_domain.voltage                   1                       # Voltage in Volts
system.mem_ctrls.pwrStateResidencyTicks::UNDEFINED 172433880000                       # Cumulative time (in ticks) in various power states
system.mem_ctrls.bytes_read::.cpu.inst          42368                       # Number of bytes read from this memory
system.mem_ctrls.bytes_read::.cpu.data       18312320                       # Number of bytes read from this memory
system.mem_ctrls.bytes_read::total           18354688                       # Number of bytes read from this memory
system.mem_ctrls.bytes_inst_read::.cpu.inst        42368                       # Number of instructions bytes read from this memory
system.mem_ctrls.bytes_inst_read::total         42368                       # Number of instructions bytes read from this memory
system.mem_ctrls.bytes_written::.writebacks     12767360                       # Number of bytes written to this memory
system.mem_ctrls.bytes_written::total        12767360                       # Number of bytes written to this memory
system.mem_ctrls.num_reads::.cpu.inst             662                       # Number of read requests responded to by this memory
system.mem_ctrls.num_reads::.cpu.data          286130                       # Number of read requests responded to by this memory
system.mem_ctrls.num_reads::total              286792                       # Number of read requests responded to by this memory
system.mem_ctrls.num_writes::.writebacks       199490                       # Number of write requests responded to by this memory
system.mem_ctrls.num_writes::total             199490                       # Number of write requests responded to by this memory
system.mem_ctrls.bw_read::.cpu.inst            245706                       # Total read bandwidth from this memory (bytes/s)
system.mem_ctrls.bw_read::.cpu.data         106199083                       # Total read bandwidth from this memory (bytes/s)
system.mem_ctrls.bw_read::total             106444789                       # Total read bandwidth from this memory (bytes/s)
system.mem_ctrls.bw_inst_read::.cpu.inst       245706                       # Instruction read bandwidth from this memory (bytes/s)
system.mem_ctrls.bw_inst_read::total           245706                       # Instruction read bandwidth from this memory (bytes/s)
system.mem_ctrls.bw_write::.writebacks       74042062                       # Write bandwidth from this memory (bytes/s)
system.mem_ctrls.bw_write::total             74042062                       # Write bandwidth from this memory (bytes/s)
system.mem_ctrls.bw_total::.writebacks       74042062                       # Total bandwidth to/from this memory (bytes/s)
system.mem_ctrls.bw_total::.cpu.inst           245706                       # Total bandwidth to/from this memory (bytes/s)
system.mem_ctrls.bw_total::.cpu.data        106199083                       # Total bandwidth to/from this memory (bytes/s)
system.mem_ctrls.bw_total::total            180486851                       # Total bandwidth to/from this memory (bytes/s)
system.mem_ctrls.avgPriority_.writebacks::samples    199463.00                       # Average QoS priority value for accepted requests
system.mem_ctrls.avgPriority_.cpu.inst::samples       662.00                       # Average QoS priority value for accepted requests
system.mem_ctrls.avgPriority_.cpu.data::samples    285173.00                       # Average QoS priority value for accepted requests
system.mem_ctrls.priorityMinLatency      0.000000018750                       # per QoS priority minimum request to response latency (s)
system.mem_ctrls.priorityMaxLatency      0.007640394500                       # per QoS priority maximum request to response latency (s)
system.mem_ctrls.numReadWriteTurnArounds        11658                       # Number of turnarounds from READ to WRITE
system.mem_ctrls.numWriteReadTurnArounds        11658                       # Number of turnarounds from WRITE to READ
system.mem_ctrls.numStayReadState              802318                       # Number of times bus staying in READ state
system.mem_ctrls.numStayWriteState             187997                       # Number of times bus staying in WRITE state
system.mem_ctrls.readReqs                      286792                       # Number of read requests accepted
system.mem_ctrls.writeReqs                     199490                       # Number of write requests accepted
system.mem_ctrls.readBursts                    286792                       # Number of DRAM read bursts, including those serviced by the write queue
system.mem_ctrls.writeBursts                   199490                       # Number of DRAM write bursts, including those merged in the write queue
system.mem_ctrls.servicedByWrQ                    957                       # Number of DRAM read bursts serviced by the write queue
system.mem_ctrls.mergedWrBursts                    27                       # Number of DRAM write bursts merged with an existing one
system.mem_ctrls.neitherReadNorWriteReqs            0                       # Number of requests that are neither read nor write
system.mem_ctrls.perBankRdBursts::0             18611                       # Per bank write bursts
system.mem_ctrls.perBankRdBursts::1             18512                       # Per bank write bursts
system.mem_ctrls.perBankRdBursts::2             17829                       # Per bank write bursts
system.mem_ctrls.perBankRdBursts::3             18143                       # Per bank write bursts
system.mem_ctrls.perBankRdBursts::4             19111                       # Per bank write bursts
system.mem_ctrls.perBankRdBursts::5             18510                       # Per bank write bursts
system.mem_ctrls.perBankRdBursts::6             17099                       # Per bank write bursts
system.mem_ctrls.perBankRdBursts::7             17494                       # Per bank write bursts
system.mem_ctrls.perBankRdBursts::8             18030                       # Per bank write bursts
system.mem_ctrls.perBankRdBursts::9             17736                       # Per bank write bursts
system.mem_ctrls.perBankRdBursts::10            16956                       # Per bank write bursts
system.mem_ctrls.perBankRdBursts::11            16547                       # Per bank write bursts
system.mem_ctrls.perBankRdBursts::12            17685                       # Per bank write bursts
system.mem_ctrls.perBankRdBursts::13            18249                       # Per bank write bursts
system.mem_ctrls.perBankRdBursts::14            17345                       # Per bank write bursts
system.mem_ctrls.perBankRdBursts::15            17978                       # Per bank write bursts
system.mem_ctrls.perBankWrBursts::0             13040                       # Per bank write bursts
system.mem_ctrls.perBankWrBursts::1             13022                       # Per bank write bursts
system.mem_ctrls.perBankWrBursts::2             12243                       # Per bank write bursts
system.mem_ctrls.perBankWrBursts::3             12751                       # Per bank write bursts
system.mem_ctrls.perBankWrBursts::4             13939                       # Per bank write bursts
system.mem_ctrls.perBankWrBursts::5             13209                       # Per bank write bursts
system.mem_ctrls.perBankWrBursts::6             11779                       # Per bank write bursts
system.mem_ctrls.perBankWrBursts::7             12016                       # Per bank write bursts
system.mem_ctrls.perBankWrBursts::8             12572                       # Per bank write bursts
system.mem_ctrls.perBankWrBursts::9             12436                       # Per bank write bursts
system.mem_ctrls.perBankWrBursts::10            11713                       # Per bank write bursts
system.mem_ctrls.perBankWrBursts::11            11394                       # Per bank write bursts
system.mem_ctrls.perBankWrBursts::12            12242                       # Per bank write bursts
system.mem_ctrls.perBankWrBursts::13            12717                       # Per bank write bursts
system.mem_ctrls.perBankWrBursts::14            11805                       # Per bank write bursts
system.mem_ctrls.perBankWrBursts::15            12558                       # Per bank write bursts
system.mem_ctrls.avgRdQLen                       1.05                       # Average read queue length when enqueuing
system.mem_ctrls.avgWrQLen                      24.75                       # Average write queue length when enqueuing
system.mem_ctrls.totQLat                   4772881000                       # Total ticks spent queuing
system.mem_ctrls.totBusLat                 1429175000                       # Total ticks spent in databus transfers
system.mem_ctrls.totMemAccLat             10132287250                       # Total ticks spent from burst creation until serviced by the DRAM
system.mem_ctrls.avgQLat                     16698.03                       # Average queueing delay per DRAM burst
system.mem_ctrls.avgBusLat                    5000.00                       # Average bus latency per DRAM burst
system.mem_ctrls.avgMemAccLat                35448.03                       # Average memory access latency per DRAM burst
system.mem_ctrls.numRdRetry                         0                       # Number of times read queue was full causing retry
system.mem_ctrls.numWrRetry                         0                       # Number of times write queue was full causing retry
system.mem_ctrls.readRowHits                   144810                       # Number of row buffer hits during reads
system.mem_ctrls.writeRowHits                  101750                       # Number of row buffer hits during writes
system.mem_ctrls.readRowHitRate                 50.66                       # Row buffer hit rate for reads
system.mem_ctrls.writeRowHitRate                51.01                       # Row buffer hit rate for writes
system.mem_ctrls.readPktSize::0                     0                       # Read request sizes (log2)
system.mem_ctrls.readPktSize::1                     0                       # Read request sizes (log2)
system.mem_ctrls.readPktSize::2                     0                       # Read request sizes (log2)
system.mem_ctrls.readPktSize::3                     0                       # Read request sizes (log2)
system.mem_ctrls.readPktSize::4                     0                       # Read request sizes (log2)
system.mem_ctrls.readPktSize::5                     0                       # Read request sizes (log2)
system.mem_ctrls.readPktSize::6                286792                       # Read request sizes (log2)
system.mem_ctrls.writePktSize::0                    0                       # Write request sizes (log2)
system.mem_ctrls.writePktSize::1                    0                       # Write request sizes (log2)
system.mem_ctrls.writePktSize::2                    0                       # Write request sizes (log2)
system.mem_ctrls.writePktSize::3                    0                       # Write request sizes (log2)
system.mem_ctrls.writePktSize::4                    0                       # Write request sizes (log2)
system.mem_ctrls.writePktSize::5                    0                       # Write request sizes (log2)
system.mem_ctrls.writePktSize::6               199490                       # Write request sizes (log2)
system.mem_ctrls.rdQLenPdf::0                  232395                       # What read queue length does an incoming req see
system.mem_ctrls.rdQLenPdf::1                   53201                       # What read queue length does an incoming req see
system.mem_ctrls.rdQLenPdf::2                     140                       # What read queue length does an incoming req see
system.mem_ctrls.rdQLenPdf::3                      98                       # What read queue length does an incoming req see
system.mem_ctrls.rdQLenPdf::4                       1                       # What read queue length does an incoming req see
system.mem_ctrls.rdQLenPdf::5                       0                       # What read queue length does an incoming req see
system.mem_ctrls.rdQLenPdf::6                       0                       # What read queue length does an incoming req see
system.mem_ctrls.rdQLenPdf::7                       0                       # What read queue length does an incoming req see
system.mem_ctrls.rdQLenPdf::8                       0                       # What read queue length does an incoming req see
system.mem_ctrls.rdQLenPdf::9                       0                       # What read queue length does an incoming req see
system.mem_ctrls.rdQLenPdf::10                      0                       # What read queue length does an incoming req see
system.mem_ctrls.rdQLenPdf::11                      0                       # What read queue length does an incoming req see
system.mem_ctrls.rdQLenPdf::12                      0                       # What read queue length does an incoming req see
system.mem_ctrls.rdQLenPdf::13                      0                       # What read queue length does an incoming req see
system.mem_ctrls.rdQLenPdf::14                      0                       # What read queue length does an incoming req see
system.mem_ctrls.rdQLenPdf::15                      0                       # What read queue length does an incoming req see
system.mem_ctrls.rdQLenPdf::16                      0                       # What read queue length does an incoming req see
system.mem_ctrls.rdQLenPdf::17                      0                       # What read queue length does an incoming req see
system.mem_ctrls.rdQLenPdf::18                      0                       # What read queue length does an incoming req see
system.mem_ctrls.rdQLenPdf::19                      0                       # What read queue length does an incoming req see
system.mem_ctrls.rdQLenPdf::20                      0                       # What read queue length does an incoming req see
system.mem_ctrls.rdQLenPdf::21                      0                       # What read queue length does an incoming req see
system.mem_ctrls.rdQLenPdf::22                      0                       # What read queue length does an incoming req see
system.mem_ctrls.rdQLenPdf::23                      0                       # What read queue length does an incoming req see
system.mem_ctrls.rdQLenPdf::24                      0                       # What read queue length does an incoming req see
system.mem_ctrls.rdQLenPdf::25                      0                       # What read queue length does an incoming req see
system.mem_ctrls.rdQLenPdf::26                      0                       # What read queue length does an incoming req see
system.mem_ctrls.rdQLenPdf::27                      0                       # What read queue length does an incoming req see
system.mem_ctrls.rdQLenPdf::28                      0                       # What read queue length does an incoming req see
system.mem_ctrls.rdQLenPdf::29                      0                       # What read queue length does an incoming req see
system.mem_ctrls.rdQLenPdf::30                      0                       # What read queue length does an incoming req see
system.mem_ctrls.rdQLenPdf::31                      0                       # What read queue length does an incoming req see
system.mem_ctrls.wrQLenPdf::0                       1                       # What write queue length does an incoming req see
system.mem_ctrls.wrQLenPdf::1                       1                       # What write queue length does an incoming req see
system.mem_ctrls.wrQLenPdf::2                       1                       # What write queue length does an incoming req see
system.mem_ctrls.wrQLenPdf::3                       1                       # What write queue length does an incoming req see
system.mem_ctrls.wrQLenPdf::4                       1                       # What write queue length does an incoming req see
system.mem_ctrls.wrQLenPdf::5                       1                       # What write queue length does an incoming req see
system.mem_ctrls.wrQLenPdf::6                       1                       # What write queue length does an incoming req see
system.mem_ctrls.wrQLenPdf::7                       1                       # What write queue length does an incoming req see
system.mem_ctrls.wrQLenPdf::8                       1                       # What write queue length does an incoming req see
system.mem_ctrls.wrQLenPdf::9                       1                       # What write queue length does an incoming req see
system.mem_ctrls.wrQLenPdf::10                      1                       # What write queue length does an incoming req see
system.mem_ctrls.wrQLenPdf::11                      1                       # What write queue length does an incoming req see
system.mem_ctrls.wrQLenPdf::12                      1                       # What write queue length does an incoming req see
system.mem_ctrls.wrQLenPdf::13                      1                       # What write queue length does an incoming req see
system.mem_ctrls.wrQLenPdf::14                      1                       # What write queue length does an incoming req see
system.mem_ctrls.wrQLenPdf::15                   5914                       # What write queue length does an incoming req see
system.mem_ctrls.wrQLenPdf::16                   6254                       # What write queue length does an incoming req see
system.mem_ctrls.wrQLenPdf::17                  11375                       # What write queue length does an incoming req see
system.mem_ctrls.wrQLenPdf::18                  11774                       # What write queue length does an incoming req see
system.mem_ctrls.wrQLenPdf::19                  11755                       # What write queue length does an incoming req see
system.mem_ctrls.wrQLenPdf::20                  11738                       # What write queue length does an incoming req see
system.mem_ctrls.wrQLenPdf::21                  11837                       # What write queue length does an incoming req see
system.mem_ctrls.wrQLenPdf::22                  11756                       # What write queue length does an incoming req see
system.mem_ctrls.wrQLenPdf::23                  11746                       # What write queue length does an incoming req see
system.mem_ctrls.wrQLenPdf::24                  11732                       # What write queue length does an incoming req see
system.mem_ctrls.wrQLenPdf::25                  11708                       # What write queue length does an incoming req see
system.mem_ctrls.wrQLenPdf::26                  11701                       # What write queue length does an incoming req see
system.mem_ctrls.wrQLenPdf::27                  11696                       # What write queue length does an incoming req see
system.mem_ctrls.wrQLenPdf::28                  11710                       # What write queue length does an incoming req see
system.mem_ctrls.wrQLenPdf::29                  11704                       # What write queue length does an incoming req see
system.mem_ctrls.wrQLenPdf::30                  11662                       # What write queue length does an incoming req see
system.mem_ctrls.wrQLenPdf::31                  11721                       # What write queue length does an incoming req see
system.mem_ctrls.wrQLenPdf::32                  11658                       # What write queue length does an incoming req see
system.mem_ctrls.wrQLenPdf::33                      7                       # What write queue length does an incoming req see
system.mem_ctrls.wrQLenPdf::34                      0                       # What write queue length does an incoming req see
system.mem_ctrls.wrQLenPdf::35                      0                       # What write queue length does an incoming req see
system.mem_ctrls.wrQLenPdf::36                      0                       # What write queue length does an incoming req see
system.mem_ctrls.wrQLenPdf::37                      0                       # What write queue length does an incoming req see
system.mem_ctrls.wrQLenPdf::38                      0                       # What write queue length does an incoming req see
system.mem_ctrls.wrQLenPdf::39                      0                       # What write queue length does an incoming req see
system.mem_ctrls.wrQLenPdf::40                      0                       # What write queue length does an incoming req see
system.mem_ctrls.wrQLenPdf::41                      0                       # What write queue length does an incoming req see
system.mem_ctrls.wrQLenPdf::42                      0                       # What write queue length does an incoming req see
system.mem_ctrls.wrQLenPdf::43                      0                       # What write queue length does an incoming req see
system.mem_ctrls.wrQLenPdf::44                      0                       # What write queue length does an incoming req see
system.mem_ctrls.wrQLenPdf::45                      0                       # What write queue length does an incoming req see
system.mem_ctrls.wrQLenPdf::46                      0                       # What write queue length does an incoming req see
system.mem_ctrls.wrQLenPdf::47                      0                       # What write queue length does an incoming req see
system.mem_ctrls.wrQLenPdf::48                      0                       # What write queue length does an incoming req see
system.mem_ctrls.wrQLenPdf::49                      0                       # What write queue length does an incoming req see
system.mem_ctrls.wrQLenPdf::50                      0                       # What write queue length does an incoming req see
system.mem_ctrls.wrQLenPdf::51                      0                       # What write queue length does an incoming req see
system.mem_ctrls.wrQLenPdf::52                      0                       # What write queue length does an incoming req see
system.mem_ctrls.wrQLenPdf::53                      0                       # What write queue length does an incoming req see
system.mem_ctrls.wrQLenPdf::54                      0                       # What write queue length does an incoming req see
system.mem_ctrls.wrQLenPdf::55                      0                       # What write queue length does an incoming req see
system.mem_ctrls.wrQLenPdf::56                      0                       # What write queue length does an incoming req see
system.mem_ctrls.wrQLenPdf::57                      0                       # What write queue length does an incoming req see
system.mem_ctrls.wrQLenPdf::58                      0                       # What write queue length does an incoming req see
system.mem_ctrls.wrQLenPdf::59                      0                       # What write queue length does an incoming req see
system.mem_ctrls.wrQLenPdf::60                      0                       # What write queue length does an incoming req see
system.mem_ctrls.wrQLenPdf::61                      0                       # What write queue length does an incoming req see
system.mem_ctrls.wrQLenPdf::62                      0                       # What write queue length does an incoming req see
system.mem_ctrls.wrQLenPdf::63                      0                       # What write queue length does an incoming req see
system.mem_ctrls.bytesPerActivate::samples       238698                       # Bytes accessed per row activation
system.mem_ctrls.bytesPerActivate::mean    130.107701                       # Bytes accessed per row activation
system.mem_ctrls.bytesPerActivate::gmean    88.020072                       # Bytes accessed per row activation
system.mem_ctrls.bytesPerActivate::stdev   188.364479                       # Bytes accessed per row activation
system.mem_ctrls.bytesPerActivate::0-127       184207     77.17%     77.17% # Bytes accessed per row activation
system.mem_ctrls.bytesPerActivate::128-255        29345     12.29%     89.47% # Bytes accessed per row activation
system.mem_ctrls.bytesPerActivate::256-383         5951      2.49%     91.96% # Bytes accessed per row activation
system.mem_ctrls.bytesPerActivate::384-511         1666      0.70%     92.66% # Bytes accessed per row activation
system.mem_ctrls.bytesPerActivate::512-639         9255      3.88%     96.53% # Bytes accessed per row activation
system.mem_ctrls.bytesPerActivate::640-767          702      0.29%     96.83% # Bytes accessed per row activation
system.mem_ctrls.bytesPerActivate::768-895          467      0.20%     97.02% # Bytes accessed per row activation
system.mem_ctrls.bytesPerActivate::896-1023          566      0.24%     97.26% # Bytes accessed per row activation
system.mem_ctrls.bytesPerActivate::1024-1151         6539      2.74%    100.00% # Bytes accessed per row activation
system.mem_ctrls.bytesPerActivate::total       238698                       # Bytes accessed per row activation
system.mem_ctrls.rdPerTurnAround::samples        11658                       # Reads before turning the bus around for writes
system.mem_ctrls.rdPerTurnAround::mean      24.516984                       # Reads before turning the bus around for writes
system.mem_ctrls.rdPerTurnAround::gmean     22.109292                       # Reads before turning the bus around for writes
system.mem_ctrls.rdPerTurnAround::stdev     26.407295                       # Reads before turning the bus around for writes
system.mem_ctrls.rdPerTurnAround::0-63          11453     98.24%     98.24% # Reads before turning the bus around for writes
system.mem_ctrls.rdPerTurnAround::64-127          137      1.18%     99.42% # Reads before turning the bus around for writes
system.mem_ctrls.rdPerTurnAround::128-191           27      0.23%     99.65% # Reads before turning the bus around for writes
system.mem_ctrls.rdPerTurnAround::192-255            8      0.07%     99.72% # Reads before turning the bus around for writes
system.mem_ctrls.rdPerTurnAround::256-319           26      0.22%     99.94% # Reads before turning the bus around for writes
[...]
system.cpu.icache.ReadReq_miss_rate::total     0.000072                       # miss rate for ReadReq accesses
system.cpu.icache.ReadReq_avg_miss_latency::.cpu.inst 99231.759657                       # average ReadReq miss latency
system.cpu.icache.ReadReq_avg_miss_latency::total 99231.759657                       # average ReadReq miss latency
system.cpu.icache.ReadReq_mshr_misses::.cpu.inst          699                       # number of ReadReq MSHR misses
system.cpu.icache.ReadReq_mshr_misses::total          699                       # number of ReadReq MSHR misses
system.cpu.icache.ReadReq_mshr_miss_latency::.cpu.inst     67965000                       # number of ReadReq MSHR miss cycles
system.cpu.icache.ReadReq_mshr_miss_latency::total     67965000                       # number of ReadReq MSHR miss cycles
system.cpu.icache.ReadReq_mshr_miss_rate::.cpu.inst     0.000072                       # mshr miss rate for ReadReq accesses
system.cpu.icache.ReadReq_mshr_miss_rate::total     0.000072                       # mshr miss rate for ReadReq accesses
system.cpu.icache.ReadReq_avg_mshr_miss_latency::.cpu.inst 97231.759657                       # average ReadReq mshr miss latency
system.cpu.icache.ReadReq_avg_mshr_miss_latency::total 97231.759657                       # average ReadReq mshr miss latency
system.cpu.icache.tags.pwrStateResidencyTicks::UNDEFINED 172433880000                       # Cumulative time (in ticks) in various power states
system.cpu.icache.tags.tagsinuse           500.361417                       # Cycle average of tags in use
system.cpu.icache.tags.total_refs             9664069                       # Total number of references to valid blocks.
system.cpu.icache.tags.sampled_refs               699                       # Sample count of references to valid blocks.
system.cpu.icache.tags.avg_refs          13825.563662                       # Average number of references to valid blocks.
system.cpu.icache.tags.warmup_cycle            108000                       # Cycle when the warmup percentage was hit.
system.cpu.icache.tags.occ_blocks::.cpu.inst   500.361417                       # Average occupied blocks per requestor
system.cpu.icache.tags.occ_percent::.cpu.inst     0.244317                       # Average percentage of cache occupancy
system.cpu.icache.tags.occ_percent::total     0.244317                       # Average percentage of cache occupancy
system.cpu.icache.tags.occ_task_id_blocks::1024          599                       # Occupied blocks per task id
system.cpu.icache.tags.age_task_id_blocks_1024::4          599                       # Occupied blocks per task id
system.cpu.icache.tags.occ_task_id_percent::1024     0.292480                       # Percentage of cache occupancy per task id
system.cpu.icache.tags.tag_accesses           9664768                       # Number of tag accesses
system.cpu.icache.tags.data_accesses          9664768                       # Number of data accesses
system.cpu.dtb.walker.pwrStateResidencyTicks::UNDEFINED 172433880000                       # Cumulative time (in ticks) in various power states
system.cpu.dtb.stage2_mmu.stage2_tlb.walker.pwrStateResidencyTicks::UNDEFINED 172433880000                       # Cumulative time (in ticks) in various power states
system.cpu.dcache.pwrStateResidencyTicks::UNDEFINED 172433880000                       # Cumulative time (in ticks) in various power states
system.cpu.dcache.demand_hits::.cpu.data     50970328                       # number of demand (read+write) hits
system.cpu.dcache.demand_hits::total         50970328                       # number of demand (read+write) hits
system.cpu.dcache.overall_hits::.cpu.data     50970738                       # number of overall hits
system.cpu.dcache.overall_hits::total        50970738                       # number of overall hits
system.cpu.dcache.demand_misses::.cpu.data      1105771                       # number of demand (read+write) misses
system.cpu.dcache.demand_misses::total        1105771                       # number of demand (read+write) misses
system.cpu.dcache.overall_misses::.cpu.data      1113771                       # number of overall misses
system.cpu.dcache.overall_misses::total       1113771                       # number of overall misses
system.cpu.dcache.demand_miss_latency::.cpu.data  53506773000                       # number of demand (read+write) miss cycles
system.cpu.dcache.demand_miss_latency::total  53506773000                       # number of demand (read+write) miss cycles
system.cpu.dcache.overall_miss_latency::.cpu.data  53506773000                       # number of overall miss cycles
system.cpu.dcache.overall_miss_latency::total  53506773000                       # number of overall miss cycles
system.cpu.dcache.demand_accesses::.cpu.data     52076099                       # number of demand (read+write) accesses
system.cpu.dcache.demand_accesses::total     52076099                       # number of demand (read+write) accesses
system.cpu.dcache.overall_accesses::.cpu.data     52084509                       # number of overall (read+write) accesses
system.cpu.dcache.overall_accesses::total     52084509                       # number of overall (read+write) accesses
system.cpu.dcache.demand_miss_rate::.cpu.data     0.021234                       # miss rate for demand accesses
system.cpu.dcache.demand_miss_rate::total     0.021234                       # miss rate for demand accesses
system.cpu.dcache.overall_miss_rate::.cpu.data     0.021384                       # miss rate for overall accesses
system.cpu.dcache.overall_miss_rate::total     0.021384                       # miss rate for overall accesses
system.cpu.dcache.demand_avg_miss_latency::.cpu.data 48388.656422                       # average overall miss latency
system.cpu.dcache.demand_avg_miss_latency::total 48388.656422                       # average overall miss latency
system.cpu.dcache.overall_avg_miss_latency::.cpu.data 48041.090134                       # average overall miss latency
system.cpu.dcache.overall_avg_miss_latency::total 48041.090134                       # average overall miss latency
system.cpu.dcache.blocked_cycles::no_mshrs        87621                       # number of cycles access was blocked
system.cpu.dcache.blocked_cycles::no_targets            0                       # number of cycles access was blocked
system.cpu.dcache.blocked::no_mshrs              3161                       # number of cycles access was blocked
system.cpu.dcache.blocked::no_targets               0                       # number of cycles access was blocked
system.cpu.dcache.avg_blocked_cycles::no_mshrs    27.719393                       # average number of cycles each access was blocked
system.cpu.dcache.avg_blocked_cycles::no_targets          nan                       # average number of cycles each access was blocked
system.cpu.dcache.writebacks::.writebacks       945427                       # number of writebacks
system.cpu.dcache.writebacks::total            945427                       # number of writebacks
system.cpu.dcache.demand_mshr_hits::.cpu.data        59134                       # number of demand (read+write) MSHR hits
system.cpu.dcache.demand_mshr_hits::total        59134                       # number of demand (read+write) MSHR hits
system.cpu.dcache.overall_mshr_hits::.cpu.data        59134                       # number of overall MSHR hits
system.cpu.dcache.overall_mshr_hits::total        59134                       # number of overall MSHR hits
system.cpu.dcache.demand_mshr_misses::.cpu.data      1046637                       # number of demand (read+write) MSHR misses
system.cpu.dcache.demand_mshr_misses::total      1046637                       # number of demand (read+write) MSHR misses
system.cpu.dcache.overall_mshr_misses::.cpu.data      1054632                       # number of overall MSHR misses
system.cpu.dcache.overall_mshr_misses::total      1054632                       # number of overall MSHR misses
system.cpu.dcache.demand_mshr_miss_latency::.cpu.data  49604945000                       # number of demand (read+write) MSHR miss cycles
system.cpu.dcache.demand_mshr_miss_latency::total  49604945000                       # number of demand (read+write) MSHR miss cycles
system.cpu.dcache.overall_mshr_miss_latency::.cpu.data  50401631992                       # number of overall MSHR miss cycles
system.cpu.dcache.overall_mshr_miss_latency::total  50401631992                       # number of overall MSHR miss cycles
system.cpu.dcache.demand_mshr_miss_rate::.cpu.data     0.020098                       # mshr miss rate for demand accesses
system.cpu.dcache.demand_mshr_miss_rate::total     0.020098                       # mshr miss rate for demand accesses
system.cpu.dcache.overall_mshr_miss_rate::.cpu.data     0.020248                       # mshr miss rate for overall accesses
system.cpu.dcache.overall_mshr_miss_rate::total     0.020248                       # mshr miss rate for overall accesses
system.cpu.dcache.demand_avg_mshr_miss_latency::.cpu.data 47394.602904                       # average overall mshr miss latency
system.cpu.dcache.demand_avg_mshr_miss_latency::total 47394.602904                       # average overall mshr miss latency
system.cpu.dcache.overall_avg_mshr_miss_latency::.cpu.data 47790.728891                       # average overall mshr miss latency
system.cpu.dcache.overall_avg_mshr_miss_latency::total 47790.728891                       # average overall mshr miss latency
system.cpu.dcache.replacements                1054119                       # number of replacements
system.cpu.dcache.ReadReq_hits::.cpu.data     40459456                       # number of ReadReq hits
system.cpu.dcache.ReadReq_hits::total        40459456                       # number of ReadReq hits
system.cpu.dcache.ReadReq_misses::.cpu.data       666542                       # number of ReadReq misses
system.cpu.dcache.ReadReq_misses::total        666542                       # number of ReadReq misses
system.cpu.dcache.ReadReq_miss_latency::.cpu.data  26082565000                       # number of ReadReq miss cycles
system.cpu.dcache.ReadReq_miss_latency::total  26082565000                       # number of ReadReq miss cycles
system.cpu.dcache.ReadReq_accesses::.cpu.data     41125998                       # number of ReadReq accesses(hits+misses)
system.cpu.dcache.ReadReq_accesses::total     41125998                       # number of ReadReq accesses(hits+misses)
system.cpu.dcache.ReadReq_miss_rate::.cpu.data     0.016207                       # miss rate for ReadReq accesses
system.cpu.dcache.ReadReq_miss_rate::total     0.016207                       # miss rate for ReadReq accesses
system.cpu.dcache.ReadReq_avg_miss_latency::.cpu.data 39131.165028                       # average ReadReq miss latency
system.cpu.dcache.ReadReq_avg_miss_latency::total 39131.165028                       # average ReadReq miss latency
system.cpu.dcache.ReadReq_mshr_hits::.cpu.data         3320                       # number of ReadReq MSHR hits
system.cpu.dcache.ReadReq_mshr_hits::total         3320                       # number of ReadReq MSHR hits
system.cpu.dcache.ReadReq_mshr_misses::.cpu.data       663222                       # number of ReadReq MSHR misses
system.cpu.dcache.ReadReq_mshr_misses::total       663222                       # number of ReadReq MSHR misses
system.cpu.dcache.ReadReq_mshr_miss_latency::.cpu.data  24607530000                       # number of ReadReq MSHR miss cycles
system.cpu.dcache.ReadReq_mshr_miss_latency::total  24607530000                       # number of ReadReq MSHR miss cycles
system.cpu.dcache.ReadReq_mshr_miss_rate::.cpu.data     0.016127                       # mshr miss rate for ReadReq accesses
system.cpu.dcache.ReadReq_mshr_miss_rate::total     0.016127                       # mshr miss rate for ReadReq accesses
system.cpu.dcache.ReadReq_avg_mshr_miss_latency::.cpu.data 37103.006233                       # average ReadReq mshr miss latency
system.cpu.dcache.ReadReq_avg_mshr_miss_latency::total 37103.006233                       # average ReadReq mshr miss latency
system.cpu.dcache.WriteReq_hits::.cpu.data     10510872                       # number of WriteReq hits
system.cpu.dcache.WriteReq_hits::total       10510872                       # number of WriteReq hits
system.cpu.dcache.WriteReq_misses::.cpu.data       439229                       # number of WriteReq misses
system.cpu.dcache.WriteReq_misses::total       439229                       # number of WriteReq misses
system.cpu.dcache.WriteReq_miss_latency::.cpu.data  27424208000                       # number of WriteReq miss cycles
system.cpu.dcache.WriteReq_miss_latency::total  27424208000                       # number of WriteReq miss cycles
system.cpu.dcache.WriteReq_accesses::.cpu.data     10950101                       # number of WriteReq accesses(hits+misses)
system.cpu.dcache.WriteReq_accesses::total     10950101                       # number of WriteReq accesses(hits+misses)
system.cpu.dcache.WriteReq_miss_rate::.cpu.data     0.040112                       # miss rate for WriteReq accesses
system.cpu.dcache.WriteReq_miss_rate::total     0.040112                       # miss rate for WriteReq accesses
system.cpu.dcache.WriteReq_avg_miss_latency::.cpu.data 62437.152374                       # average WriteReq miss latency
system.cpu.dcache.WriteReq_avg_miss_latency::total 62437.152374                       # average WriteReq miss latency
system.cpu.dcache.WriteReq_mshr_hits::.cpu.data        55814                       # number of WriteReq MSHR hits
system.cpu.dcache.WriteReq_mshr_hits::total        55814                       # number of WriteReq MSHR hits
system.cpu.dcache.WriteReq_mshr_misses::.cpu.data       383415                       # number of WriteReq MSHR misses
system.cpu.dcache.WriteReq_mshr_misses::total       383415                       # number of WriteReq MSHR misses
system.cpu.dcache.WriteReq_mshr_miss_latency::.cpu.data  24997415000                       # number of WriteReq MSHR miss cycles
system.cpu.dcache.WriteReq_mshr_miss_latency::total  24997415000                       # number of WriteReq MSHR miss cycles
system.cpu.dcache.WriteReq_mshr_miss_rate::.cpu.data     0.035015                       # mshr miss rate for WriteReq accesses
system.cpu.dcache.WriteReq_mshr_miss_rate::total     0.035015                       # mshr miss rate for WriteReq accesses
system.cpu.dcache.WriteReq_avg_mshr_miss_latency::.cpu.data 65196.758082                       # average WriteReq mshr miss latency
system.cpu.dcache.WriteReq_avg_mshr_miss_latency::total 65196.758082                       # average WriteReq mshr miss latency
system.cpu.dcache.SoftPFReq_hits::.cpu.data          410                       # number of SoftPFReq hits
system.cpu.dcache.SoftPFReq_hits::total           410                       # number of SoftPFReq hits
system.cpu.dcache.SoftPFReq_misses::.cpu.data         8000                       # number of SoftPFReq misses
system.cpu.dcache.SoftPFReq_misses::total         8000                       # number of SoftPFReq misses
system.cpu.dcache.SoftPFReq_accesses::.cpu.data         8410                       # number of SoftPFReq accesses(hits+misses)
system.cpu.dcache.SoftPFReq_accesses::total         8410                       # number of SoftPFReq accesses(hits+misses)
system.cpu.dcache.SoftPFReq_miss_rate::.cpu.data     0.951249                       # miss rate for SoftPFReq accesses
system.cpu.dcache.SoftPFReq_miss_rate::total     0.951249                       # miss rate for SoftPFReq accesses
system.cpu.dcache.SoftPFReq_mshr_misses::.cpu.data         7995                       # number of SoftPFReq MSHR misses
system.cpu.dcache.SoftPFReq_mshr_misses::total         7995                       # number of SoftPFReq MSHR misses
system.cpu.dcache.SoftPFReq_mshr_miss_latency::.cpu.data    796686992                       # number of SoftPFReq MSHR miss cycles
system.cpu.dcache.SoftPFReq_mshr_miss_latency::total    796686992                       # number of SoftPFReq MSHR miss cycles
system.cpu.dcache.SoftPFReq_mshr_miss_rate::.cpu.data     0.950654                       # mshr miss rate for SoftPFReq accesses
system.cpu.dcache.SoftPFReq_mshr_miss_rate::total     0.950654                       # mshr miss rate for SoftPFReq accesses
system.cpu.dcache.SoftPFReq_avg_mshr_miss_latency::.cpu.data 99648.154096                       # average SoftPFReq mshr miss latency
system.cpu.dcache.SoftPFReq_avg_mshr_miss_latency::total 99648.154096                       # average SoftPFReq mshr miss latency
system.cpu.dcache.LoadLockedReq_hits::.cpu.data           38                       # number of LoadLockedReq hits
system.cpu.dcache.LoadLockedReq_hits::total           38                       # number of LoadLockedReq hits
system.cpu.dcache.LoadLockedReq_accesses::.cpu.data           38                       # number of LoadLockedReq accesses(hits+misses)
system.cpu.dcache.LoadLockedReq_accesses::total           38                       # number of LoadLockedReq accesses(hits+misses)
system.cpu.dcache.StoreCondReq_hits::.cpu.data           38                       # number of StoreCondReq hits
system.cpu.dcache.StoreCondReq_hits::total           38                       # number of StoreCondReq hits
system.cpu.dcache.StoreCondReq_accesses::.cpu.data           38                       # number of StoreCondReq accesses(hits+misses)
system.cpu.dcache.StoreCondReq_accesses::total           38                       # number of StoreCondReq accesses(hits+misses)
system.cpu.dcache.tags.pwrStateResidencyTicks::UNDEFINED 172433880000                       # Cumulative time (in ticks) in various power states
system.cpu.dcache.tags.tagsinuse           507.660163                       # Cycle average of tags in use
system.cpu.dcache.tags.total_refs            52025445                       # Total number of references to valid blocks.
system.cpu.dcache.tags.sampled_refs           1054631                       # Sample count of references to valid blocks.
system.cpu.dcache.tags.avg_refs             49.330472                       # Average number of references to valid blocks.
system.cpu.dcache.tags.warmup_cycle            223000                       # Cycle when the warmup percentage was hit.
system.cpu.dcache.tags.occ_blocks::.cpu.data   507.660163                       # Average occupied blocks per requestor
system.cpu.dcache.tags.occ_percent::.cpu.data     0.991524                       # Average percentage of cache occupancy
system.cpu.dcache.tags.occ_percent::total     0.991524                       # Average percentage of cache occupancy
system.cpu.dcache.tags.occ_task_id_blocks::1024          512                       # Occupied blocks per task id
system.cpu.dcache.tags.age_task_id_blocks_1024::0          105                       # Occupied blocks per task id
system.cpu.dcache.tags.age_task_id_blocks_1024::1          216                       # Occupied blocks per task id
system.cpu.dcache.tags.age_task_id_blocks_1024::2          191                       # Occupied blocks per task id
system.cpu.dcache.tags.occ_task_id_percent::1024            1                       # Percentage of cache occupancy per task id
system.cpu.dcache.tags.tag_accesses          53139216                       # Number of tag accesses
system.cpu.dcache.tags.data_accesses         53139216                       # Number of data accesses
system.cpu.itb.walker.pwrStateResidencyTicks::UNDEFINED 172433880000                       # Cumulative time (in ticks) in various power states
system.cpu.itb.stage2_mmu.stage2_tlb.walker.pwrStateResidencyTicks::UNDEFINED 172433880000                       # Cumulative time (in ticks) in various power states

---------- End Simulation Statistics   ----------
