
---------- Begin Simulation Statistics ----------
final_tick                               172283475000                       # Number of ticks from beginning of simulation (restored from checkpoints and never reset)
host_inst_rate                                 340209                       # Simulator instruction rate (inst/s)
host_mem_usage                                 684796                       # Number of bytes of host memory used
host_op_rate                                   340877                       # Simulator op (including micro ops) rate (op/s)
host_seconds                                   293.94                       # Real time elapsed on the host
host_tick_rate                              586123203                       # Simulator tick rate (ticks/s)
sim_freq                                 1000000000000                       # Frequency of simulated ticks
sim_insts                                   100000001                       # Number of instructions simulated
sim_ops                                     100196363                       # Number of ops (including micro ops) simulated
sim_seconds                                  0.172283                       # Number of seconds simulated
sim_ticks                                172283475000                       # Number of ticks simulated
system.cpu.branchPred.BTBCorrect                    0                       # Number of correct BTB predictions (this stat may not work properly.
system.cpu.branchPred.BTBHitPct             99.693800                       # BTB Hit Percentage
system.cpu.branchPred.BTBHits                 2095458                       # Number of BTB hits
system.cpu.branchPred.BTBLookups              2101894                       # Number of BTB lookups
system.cpu.branchPred.RASInCorrect                  5                       # Number of incorrect RAS predictions.
system.cpu.branchPred.condIncorrect             81341                       # Number of conditional branches incorrect
system.cpu.branchPred.condPredicted           3727831                       # Number of conditional branches predicted
system.cpu.branchPred.indirectHits                291                       # Number of indirect target hits.
system.cpu.branchPred.indirectLookups             809                       # Number of indirect predictor lookups.
system.cpu.branchPred.indirectMisses              518                       # Number of indirect misses.
system.cpu.branchPred.lookups                 4477953                       # Number of BP lookups
system.cpu.branchPred.usedRAS                   65342                       # Number of times the RAS was used to get a target.
system.cpu.branchPredindirectMispredicted          171                       # Number of mispredicted indirect branches.
system.cpu.committedInsts                   100000001                       # Number of instructions committed
system.cpu.committedOps                     100196363                       # Number of ops (including micro ops) committed
system.cpu.cpi                               1.722835                       # CPI: cycles per instruction
system.cpu.discardedOps                        190880                       # Number of ops (including micro ops) which were discarded before commit
system.cpu.dtb.accesses                             0                       # DTB accesses
system.cpu.dtb.align_faults                         0                       # Number of TLB faults due to alignment restrictions
system.cpu.dtb.domain_faults                        0                       # Number of TLB faults due to domain restrictions
system.cpu.dtb.flush_entries                        0                       # Number of entries that have been flushed from TLB
system.cpu.dtb.flush_tlb                            0                       # Number of times complete TLB was flushed
system.cpu.dtb.flush_tlb_asid                       0                       # Number of times TLB was flushed by ASID
system.cpu.dtb.flush_tlb_mva                        0                       # Number of times TLB was flushed by MVA
system.cpu.dtb.flush_tlb_mva_asid                   0                       # Number of times TLB was flushed by MVA & ASID
system.cpu.dtb.hits                                 0                       # DTB hits
system.cpu.dtb.inst_accesses                        0                       # ITB inst accesses
system.cpu.dtb.inst_hits                            0                       # ITB inst hits
system.cpu.dtb.inst_misses                          0                       # ITB inst misses
system.cpu.dtb.misses                               0                       # DTB misses
system.cpu.dtb.perms_faults                         0                       # Number of TLB faults due to permissions restrictions
system.cpu.dtb.prefetch_faults                      0                       # Number of TLB faults due to prefetch
system.cpu.dtb.read_accesses                        0                       # DTB read accesses
system.cpu.dtb.read_hits                            0                       # DTB read hits
system.cpu.dtb.read_misses                          0                       # DTB read misses
system.cpu.dtb.stage2_mmu.stage2_tlb.accesses            0                       # DTB accesses
system.cpu.dtb.stage2_mmu.stage2_tlb.align_faults            0                       # Number of TLB faults due to alignment restrictions
system.cpu.dtb.stage2_mmu.stage2_tlb.domain_faults            0                       # Number of TLB faults due to domain restrictions
system.cpu.dtb.stage2_mmu.stage2_tlb.flush_entries            0                       # Number of entries that have been flushed from TLB
system.cpu.dtb.stage2_mmu.stage2_tlb.flush_tlb            0                       # Number of times complete TLB was flushed
system.cpu.dtb.stage2_mmu.stage2_tlb.flush_tlb_asid            0                       # Number of times TLB was flushed by ASID
system.cpu.dtb.stage2_mmu.stage2_tlb.flush_tlb_mva            0                       # Number of times TLB was flushed by MVA
system.cpu.dtb.stage2_mmu.stage2_tlb.flush_tlb_mva_asid            0                       # Number of times TLB was flushed by MVA & ASID
system.cpu.dtb.stage2_mmu.stage2_tlb.hits            0                       # DTB hits
system.cpu.dtb.stage2_mmu.stage2_tlb.inst_accesses            0                       # ITB inst accesses
system.cpu.dtb.stage2_mmu.stage2_tlb.inst_hits            0                       # ITB inst hits
system.cpu.dtb.stage2_mmu.stage2_tlb.inst_misses            0                       # ITB inst misses
system.cpu.dtb.stage2_mmu.stage2_tlb.misses            0                       # DTB misses
system.cpu.dtb.stage2_mmu.stage2_tlb.perms_faults            0                       # Number of TLB faults due to permissions restrictions
system.cpu.dtb.stage2_mmu.stage2_tlb.prefetch_faults            0                       # Number of TLB faults due to prefetch
system.cpu.dtb.stage2_mmu.stage2_tlb.read_accesses            0                       # DTB read accesses
system.cpu.dtb.stage2_mmu.stage2_tlb.read_hits            0                       # DTB read hits
system.cpu.dtb.stage2_mmu.stage2_tlb.read_misses            0                       # DTB read misses
system.cpu.dtb.stage2_mmu.stage2_tlb.walker.walkRequestOrigin_Requested::Data            0                       # Table walker requests started/completed, data/inst
system.cpu.dtb.stage2_mmu.stage2_tlb.walker.walkRequestOrigin_Requested::Inst            0                       # Table walker requests started/completed, data/inst
system.cpu.dtb.stage2_mmu.stage2_tlb.walker.walkRequestOrigin_Requested::total            0                       # Table walker requests started/completed, data/inst
system.cpu.dtb.stage2_mmu.stage2_tlb.walker.walkRequestOrigin_Completed::Data            0                       # Table walker requests started/completed, data/inst
system.cpu.dtb.stage2_mmu.stage2_tlb.walker.walkRequestOrigin_Completed::Inst            0                       # Table walker requests started/completed, data/inst
system.cpu.dtb.stage2_mmu.stage2_tlb.walker.walkRequestOrigin_Completed::total            0                       # Table walker requests started/completed, data/inst
system.cpu.dtb.stage2_mmu.stage2_tlb.walker.walkRequestOrigin::total            0                       # Table walker requests started/completed, data/inst
system.cpu.dtb.stage2_mmu.stage2_tlb.walker.walks            0                       # Table walker walks requested
system.cpu.dtb.stage2_mmu.stage2_tlb.write_accesses            0                       # DTB write accesses
system.cpu.dtb.stage2_mmu.stage2_tlb.write_hits            0                       # DTB write hits
system.cpu.dtb.stage2_mmu.stage2_tlb.write_misses            0                       # DTB write misses
system.cpu.dtb.walker.walkRequestOrigin_Requested::Data            0                       # Table walker requests started/completed, data/inst
system.cpu.dtb.walker.walkRequestOrigin_Requested::Inst            0                       # Table walker requests started/completed, data/inst
system.cpu.dtb.walker.walkRequestOrigin_Requested::total            0                       # Table walker requests started/completed, data/inst
system.cpu.dtb.walker.walkRequestOrigin_Completed::Data            0                       # Table walker requests started/completed, data/inst
system.cpu.dtb.walker.walkRequestOrigin_Completed::Inst            0                       # Table walker requests started/completed, data/inst
system.cpu.dtb.walker.walkRequestOrigin_Completed::total            0                       # Table walker requests started/completed, data/inst
system.cpu.dtb.walker.walkRequestOrigin::total            0                       # Table walker requests started/completed, data/inst
system.cpu.dtb.walker.walks                         0                       # Table walker walks requested
system.cpu.dtb.write_accesses                       0                       # DTB write accesses
system.cpu.dtb.write_hits                           0                       # DTB write hits
system.cpu.dtb.write_misses                         0                       # DTB write misses
system.cpu.fetch2.amo_instructions                  0                       # Number of memory atomic instructions successfully decoded
system.cpu.fetch2.fp_instructions                   0                       # Number of floating point instructions successfully decoded
system.cpu.fetch2.int_instructions           42610542                       # Number of integer instructions successfully decoded
system.cpu.fetch2.load_instructions          43402781                       # Number of memory load instructions successfully decoded
system.cpu.fetch2.store_instructions         11001551                       # Number of memory store instructions successfully decoded
system.cpu.fetch2.vec_instructions                  0                       # Number of SIMD instructions successfully decoded
system.cpu.idleCycles                        39074375                       # Total number of cycles that the object has spent stopped
system.cpu.ipc                               0.580439                       # IPC: instructions per cycle
system.cpu.itb.accesses                             0                       # DTB accesses
system.cpu.itb.align_faults                         0                       # Number of TLB faults due to alignment restrictions
system.cpu.itb.domain_faults                        0                       # Number of TLB faults due to domain restrictions
system.cpu.itb.flush_entries                        0                       # Number of entries that have been flushed from TLB
system.cpu.itb.flush_tlb                            0                       # Number of times complete TLB was flushed
system.cpu.itb.flush_tlb_asid                       0                       # Number of times TLB was flushed by ASID
system.cpu.itb.flush_tlb_mva                        0                       # Number of times TLB was flushed by MVA
system.cpu.itb.flush_tlb_mva_asid                   0                       # Number of times TLB was flushed by MVA & ASID
system.cpu.itb.hits                                 0                       # DTB hits
system.cpu.itb.inst_accesses                        0                       # ITB inst accesses
system.cpu.itb.inst_hits                            0                       # ITB inst hits
system.cpu.itb.inst_misses                          0                       # ITB inst misses
system.cpu.itb.misses                               0                       # DTB misses
system.cpu.itb.perms_faults                         0                       # Number of TLB faults due to permissions restrictions
system.cpu.itb.prefetch_faults                      0                       # Number of TLB faults due to prefetch
system.cpu.itb.read_accesses                        0                       # DTB read accesses
system.cpu.itb.read_hits                            0                       # DTB read hits
system.cpu.itb.read_misses                          0                       # DTB read misses
system.cpu.itb.stage2_mmu.stage2_tlb.accesses            0                       # DTB accesses
system.cpu.itb.stage2_mmu.stage2_tlb.align_faults            0                       # Number of TLB faults due to alignment restrictions
system.cpu.itb.stage2_mmu.stage2_tlb.domain_faults            0                       # Number of TLB faults due to domain restrictions
system.cpu.itb.stage2_mmu.stage2_tlb.flush_entries            0                       # Number of entries that have been flushed from TLB
system.cpu.itb.stage2_mmu.stage2_tlb.flush_tlb            0                       # Number of times complete TLB was flushed
system.cpu.itb.stage2_mmu.stage2_tlb.flush_tlb_asid            0                       # Number of times TLB was flushed by ASID
system.cpu.itb.stage2_mmu.stage2_tlb.flush_tlb_mva            0                       # Number of times TLB was flushed by MVA
system.cpu.itb.stage2_mmu.stage2_tlb.flush_tlb_mva_asid            0                       # Number of times TLB was flushed by MVA & ASID
system.cpu.itb.stage2_mmu.stage2_tlb.hits            0                       # DTB hits
system.cpu.itb.stage2_mmu.stage2_tlb.inst_accesses            0                       # ITB inst accesses
system.cpu.itb.stage2_mmu.stage2_tlb.inst_hits            0                       # ITB inst hits
system.cpu.itb.stage2_mmu.stage2_tlb.inst_misses            0                       # ITB inst misses
system.cpu.itb.stage2_mmu.stage2_tlb.misses            0                       # DTB misses
system.cpu.itb.stage2_mmu.stage2_tlb.perms_faults            0                       # Number of TLB faults due to permissions restrictions
system.cpu.itb.stage2_mmu.stage2_tlb.prefetch_faults            0                       # Number of TLB faults due to prefetch
system.cpu.itb.stage2_mmu.stage2_tlb.read_accesses            0                       # DTB read accesses
system.cpu.itb.stage2_mmu.stage2_tlb.read_hits            0                       # DTB read hits
system.cpu.itb.stage2_mmu.stage2_tlb.read_misses            0                       # DTB read misses
system.cpu.itb.stage2_mmu.stage2_tlb.walker.walkRequestOrigin_Requested::Data            0                       # Table walker requests started/completed, data/inst
system.cpu.itb.stage2_mmu.stage2_tlb.walker.walkRequestOrigin_Requested::Inst            0                       # Table walker requests started/completed, data/inst
system.cpu.itb.stage2_mmu.stage2_tlb.walker.walkRequestOrigin_Requested::total            0                       # Table walker requests started/completed, data/inst
system.cpu.itb.stage2_mmu.stage2_tlb.walker.walkRequestOrigin_Completed::Data            0                       # Table walker requests started/completed, data/inst
system.cpu.itb.stage2_mmu.stage2_tlb.walker.walkRequestOrigin_Completed::Inst            0                       # Table walker requests started/completed, data/inst
system.cpu.itb.stage2_mmu.stage2_tlb.walker.walkRequestOrigin_Completed::total            0                       # Table walker requests started/completed, data/inst
system.cpu.itb.stage2_mmu.stage2_tlb.walker.walkRequestOrigin::total            0                       # Table walker requests started/completed, data/inst
system.cpu.itb.stage2_mmu.stage2_tlb.walker.walks            0                       # Table walker walks requested
system.cpu.itb.stage2_mmu.stage2_tlb.write_accesses            0                       # DTB write accesses
system.cpu.itb.stage2_mmu.stage2_tlb.write_hits            0                       # DTB write hits
system.cpu.itb.stage2_mmu.stage2_tlb.write_misses            0                       # DTB write misses
system.cpu.itb.walker.walkRequestOrigin_Requested::Data            0                       # Table walker requests started/completed, data/inst
system.cpu.itb.walker.walkRequestOrigin_Requested::Inst            0                       # Table walker requests started/completed, data/inst
system.cpu.itb.walker.walkRequestOrigin_Requested::total            0                       # Table walker requests started/completed, data/inst
system.cpu.itb.walker.walkRequestOrigin_Completed::Data            0                       # Table walker requests started/completed, data/inst
system.cpu.itb.walker.walkRequestOrigin_Completed::Inst            0                       # Table walker requests started/completed, data/inst
system.cpu.itb.walker.walkRequestOrigin_Completed::total            0                       # Table walker requests started/completed, data/inst
system.cpu.itb.walker.walkRequestOrigin::total            0                       # Table walker requests started/completed, data/inst
system.cpu.itb.walker.walks                         0                       # Table walker walks requested
system.cpu.itb.write_accesses                       0                       # DTB write accesses
system.cpu.itb.write_hits                           0                       # DTB write hits
system.cpu.itb.write_misses                         0                       # DTB write misses
system.cpu.numCycles                        172283475                       # number of cpu cycles simulated
system.cpu.numFetchSuspends                         0                       # Number of times Execute suspended instruction fetching
system.cpu.numWorkItemsCompleted                    0                       # number of work items this cpu completed
system.cpu.numWorkItemsStarted                      0                       # number of work items this cpu started
system.cpu.op_class_0::No_OpClass                   0      0.00%      0.00% # Class of committed instruction
system.cpu.op_class_0::IntAlu                46531400     46.44%     46.44% # Class of committed instruction
system.cpu.op_class_0::IntMult                  20720      0.02%     46.46% # Class of committed instruction
system.cpu.op_class_0::IntDiv                       0      0.00%     46.46% # Class of committed instruction
system.cpu.op_class_0::FloatAdd                     0      0.00%     46.46% # Class of committed instruction
system.cpu.op_class_0::FloatCmp                     0      0.00%     46.46% # Class of committed instruction
system.cpu.op_class_0::FloatCvt                     0      0.00%     46.46% # Class of committed instruction
system.cpu.op_class_0::FloatMult                    0      0.00%     46.46% # Class of committed instruction
system.cpu.op_class_0::FloatMultAcc                 0      0.00%     46.46% # Class of committed instruction
system.cpu.op_class_0::FloatDiv                     0      0.00%     46.46% # Class of committed instruction
system.cpu.op_class_0::FloatMisc                    0      0.00%     46.46% # Class of committed instruction
system.cpu.op_class_0::FloatSqrt                    0      0.00%     46.46% # Class of committed instruction
system.cpu.op_class_0::SimdAdd                      0      0.00%     46.46% # Class of committed instruction
system.cpu.op_class_0::SimdAddAcc                   0      0.00%     46.46% # Class of committed instruction
system.cpu.op_class_0::SimdAlu                      0      0.00%     46.46% # Class of committed instruction
system.cpu.op_class_0::SimdCmp                      0      0.00%     46.46% # Class of committed instruction
system.cpu.op_class_0::SimdCvt                      0      0.00%     46.46% # Class of committed instruction
system.cpu.op_class_0::SimdMisc                     0      0.00%     46.46% # Class of committed instruction
system.cpu.op_class_0::SimdMult                     0      0.00%     46.46% # Class of committed instruction
system.cpu.op_class_0::SimdMultAcc                  0      0.00%     46.46% # Class of committed instruction
system.cpu.op_class_0::SimdShift                    0      0.00%     46.46% # Class of committed instruction
system.cpu.op_class_0::SimdShiftAcc                 0      0.00%     46.46% # Class of committed instruction
system.cpu.op_class_0::SimdDiv                      0      0.00%     46.46% # Class of committed instruction
system.cpu.op_class_0::SimdSqrt                     0      0.00%     46.46% # Class of committed instruction
system.cpu.op_class_0::SimdFloatAdd                 0      0.00%     46.46% # Class of committed instruction
system.cpu.op_class_0::SimdFloatAlu                 0      0.00%     46.46% # Class of committed instruction
system.cpu.op_class_0::SimdFloatCmp                 0      0.00%     46.46% # Class of committed instruction
system.cpu.op_class_0::SimdFloatCvt                 0      0.00%     46.46% # Class of committed instruction
system.cpu.op_class_0::SimdFloatDiv                 0      0.00%     46.46% # Class of committed instruction
system.cpu.op_class_0::SimdFloatMisc               18      0.00%     46.46% # Class of committed instruction
system.cpu.op_class_0::SimdFloatMult                0      0.00%     46.46% # Class of committed instruction
system.cpu.op_class_0::SimdFloatMultAcc             0      0.00%     46.46% # Class of committed instruction
system.cpu.op_class_0::SimdFloatSqrt                0      0.00%     46.46% # Class of committed instruction
system.cpu.op_class_0::SimdReduceAdd                0      0.00%     46.46% # Class of committed instruction
system.cpu.op_class_0::SimdReduceAlu                0      0.00%     46.46% # Class of committed instruction
system.cpu.op_class_0::SimdReduceCmp                0      0.00%     46.46% # Class of committed instruction
system.cpu.op_class_0::SimdFloatReduceAdd            0      0.00%     46.46% # Class of committed instruction
system.cpu.op_class_0::SimdFloatReduceCmp            0      0.00%     46.46% # Class of committed instruction
system.cpu.op_class_0::SimdAes                      0      0.00%     46.46% # Class of committed instruction
system.cpu.op_class_0::SimdAesMix                   0      0.00%     46.46% # Class of committed instruction
system.cpu.op_class_0::SimdSha1Hash                 0      0.00%     46.46% # Class of committed instruction
system.cpu.op_class_0::SimdSha1Hash2                0      0.00%     46.46% # Class of committed instruction
system.cpu.op_class_0::SimdSha256Hash               0      0.00%     46.46% # Class of committed instruction
system.cpu.op_class_0::SimdSha256Hash2              0      0.00%     46.46% # Class of committed instruction
system.cpu.op_class_0::SimdShaSigma2                0      0.00%     46.46% # Class of committed instruction
system.cpu.op_class_0::SimdShaSigma3                0      0.00%     46.46% # Class of committed instruction
system.cpu.op_class_0::SimdPredAlu                  0      0.00%     46.46% # Class of committed instruction
system.cpu.op_class_0::MemRead               42693601     42.61%     89.07% # Class of committed instruction
system.cpu.op_class_0::MemWrite              10950624     10.93%    100.00% # Class of committed instruction
system.cpu.op_class_0::FloatMemRead                 0      0.00%    100.00% # Class of committed instruction
system.cpu.op_class_0::FloatMemWrite                0      0.00%    100.00% # Class of committed instruction
system.cpu.op_class_0::IprAccess                    0      0.00%    100.00% # Class of committed instruction
system.cpu.op_class_0::InstPrefetch                 0      0.00%    100.00% # Class of committed instruction
system.cpu.op_class_0::total                100196363                       # Class of committed instruction
system.cpu.tickCycles                       133209100                       # Number of cycles that the object actually ticked
system.cpu.workload.numSyscalls                    84                       # Number of system calls
system.membus.snoop_filter.hit_multi_requests            0                       # Number of requests hitting in the snoop filter with multiple (>1) holders of the requested data.
system.membus.snoop_filter.hit_multi_snoops            0                       # Number of snoops hitting in the snoop filter with multiple (>1) holders of the requested data.
system.membus.snoop_filter.hit_single_requests       271385                       # Number of requests hitting in the snoop filter with a single holder of the requested data.
system.membus.snoop_filter.hit_single_snoops            0                       # Number of snoops hitting in the snoop filter with a single holder of the requested data.
system.membus.snoop_filter.tot_requests        551464                       # Total number of requests made to the snoop filter.
system.membus.snoop_filter.tot_snoops               0                       # Total number of snoops made to the snoop filter.
system.tol2bus.snoop_filter.hit_multi_requests         1527                       # Number of requests hitting in the snoop filter with multiple (>1) holders of the requested data.
system.tol2bus.snoop_filter.hit_multi_snoops            0                       # Number of snoops hitting in the snoop filter with multiple (>1) holders of the requested data.
system.tol2bus.snoop_filter.hit_single_requests      1054372                       # Number of requests hitting in the snoop filter with a single holder of the requested data.
system.tol2bus.snoop_filter.hit_single_snoops          600                       # Number of snoops hitting in the snoop filter with a single holder of the requested data.
system.tol2bus.snoop_filter.tot_requests      2109768                       # Total number of requests made to the snoop filter.
system.tol2bus.snoop_filter.tot_snoops            600                       # Total number of snoops made to the snoop filter.
system.membus.pwrStateResidencyTicks::UNDEFINED 172283475000                       # Cumulative time (in ticks) in various power states
system.membus.trans_dist::ReadResp             109333                       # Transaction distribution
system.membus.trans_dist::WritebackDirty       193092                       # Transaction distribution
system.membus.trans_dist::CleanEvict            78283                       # Transaction distribution
system.membus.trans_dist::ReadExReq            170756                       # Transaction distribution
system.membus.trans_dist::ReadExResp           170756                       # Transaction distribution
system.membus.trans_dist::ReadSharedReq        109333                       # Transaction distribution
system.membus.pkt_count_system.l2.mem_side::system.mem_ctrls.port       831553                       # Packet count per connected master and slave (bytes)
system.membus.pkt_count::total                 831553                       # Packet count per connected master and slave (bytes)
system.membus.pkt_size_system.l2.mem_side::system.mem_ctrls.port     30283584                       # Cumulative packet size per connected master and slave (bytes)
system.membus.pkt_size::total                30283584                       # Cumulative packet size per connected master and slave (bytes)
system.membus.snoops                                0                       # Total snoops (count)
system.membus.snoopTraffic                          0                       # Total snoop traffic (bytes)
system.membus.snoop_fanout::samples            280089                       # Request fanout histogram
system.membus.snoop_fanout::mean                    0                       # Request fanout histogram
system.membus.snoop_fanout::stdev                   0                       # Request fanout histogram
system.membus.snoop_fanout::underflows              0      0.00%      0.00% # Request fanout histogram
system.membus.snoop_fanout::0                  280089    100.00%    100.00% # Request fanout histogram
system.membus.snoop_fanout::1                       0      0.00%    100.00% # Request fanout histogram
system.membus.snoop_fanout::overflows               0      0.00%    100.00% # Request fanout histogram
system.membus.snoop_fanout::min_value               0                       # Request fanout histogram
system.membus.snoop_fanout::max_value               0                       # Request fanout histogram
system.membus.snoop_fanout::total              280089                       # Request fanout histogram
system.membus.respLayer1.occupancy         1523831250                       # Layer occupancy (ticks)
system.membus.respLayer1.utilization              0.9                       # Layer utilization (%)
system.membus.reqLayer0.occupancy          1323832000                       # Layer occupancy (ticks)
system.membus.reqLayer0.utilization               0.8                       # Layer utilization (%)
system.tol2bus.pwrStateResidencyTicks::UNDEFINED 172283475000                       # Cumulative time (in ticks) in various power states
system.tol2bus.trans_dist::ReadResp            671843                       # Transaction distribution
system.tol2bus.trans_dist::WritebackDirty      1137661                       # Transaction distribution
system.tol2bus.trans_dist::WritebackClean          245                       # Transaction distribution
system.tol2bus.trans_dist::CleanEvict          188441                       # Transaction distribution
system.tol2bus.trans_dist::ReadExReq           383554                       # Transaction distribution
system.tol2bus.trans_dist::ReadExResp          383553                       # Transaction distribution
system.tol2bus.trans_dist::ReadCleanReq           758                       # Transaction distribution
system.tol2bus.trans_dist::ReadSharedReq       671085                       # Transaction distribution
system.tol2bus.pkt_count_system.cpu.icache.mem_side::system.l2.cpu_side         1761                       # Packet count per connected master and slave (bytes)
system.tol2bus.pkt_count_system.cpu.dcache.mem_side::system.l2.cpu_side      3163403                       # Packet count per connected master and slave (bytes)
system.tol2bus.pkt_count::total               3165164                       # Packet count per connected master and slave (bytes)
system.tol2bus.pkt_size_system.cpu.icache.mem_side::system.l2.cpu_side        64192                       # Cumulative packet size per connected master and slave (bytes)
system.tol2bus.pkt_size_system.cpu.dcache.mem_side::system.l2.cpu_side    127949184                       # Cumulative packet size per connected master and slave (bytes)
system.tol2bus.pkt_size::total              128013376                       # Cumulative packet size per connected master and slave (bytes)
system.tol2bus.snoops                          271976                       # Total snoops (count)
system.tol2bus.snoopTraffic                  12357952                       # Total snoop traffic (bytes)
system.tol2bus.snoop_fanout::samples          1327373                       # Request fanout histogram
system.tol2bus.snoop_fanout::mean            0.001603                       # Request fanout histogram
system.tol2bus.snoop_fanout::stdev           0.040007                       # Request fanout histogram
system.tol2bus.snoop_fanout::underflows             0      0.00%      0.00% # Request fanout histogram
system.tol2bus.snoop_fanout::0                1325245     99.84%     99.84% # Request fanout histogram
system.tol2bus.snoop_fanout::1                   2128      0.16%    100.00% # Request fanout histogram
system.tol2bus.snoop_fanout::2                      0      0.00%    100.00% # Request fanout histogram
system.tol2bus.snoop_fanout::overflows              0      0.00%    100.00% # Request fanout histogram
system.tol2bus.snoop_fanout::min_value              0                       # Request fanout histogram
system.tol2bus.snoop_fanout::max_value              1                       # Request fanout histogram
system.tol2bus.snoop_fanout::total            1327373                       # Request fanout histogram
system.tol2bus.reqLayer0.occupancy         3999394000                       # Layer occupancy (ticks)
system.tol2bus.reqLayer0.utilization              2.3                       # Layer utilization (%)
system.tol2bus.respLayer1.occupancy        3163917996                       # Layer occupancy (ticks)
system.tol2bus.respLayer1.utilization             1.8                       # Layer utilization (%)
system.tol2bus.respLayer0.occupancy           2274000                       # Layer occupancy (ticks)
system.tol2bus.respLayer0.utilization             0.0                       # Layer utilization (%)
system.voltage_domain.voltage                       1                       # Voltage in Volts
system.clk_domain.clock                          1000                       # Clock period in ticks
system.l2.pwrStateResidencyTicks::UNDEFINED 172283475000                       # Cumulative time (in ticks) in various power states
system.l2.demand_hits::.cpu.inst                   92                       # number of demand (read+write) hits
system.l2.demand_hits::.cpu.data               775212                       # number of demand (read+write) hits
system.l2.demand_hits::total                   775304                       # number of demand (read+write) hits
system.l2.overall_hits::.cpu.inst                  92                       # number of overall hits
system.l2.overall_hits::.cpu.data              775212                       # number of overall hits
system.l2.overall_hits::total                  775304                       # number of overall hits
system.l2.demand_misses::.cpu.inst                666                       # number of demand (read+write) misses
system.l2.demand_misses::.cpu.data             279427                       # number of demand (read+write) misses
system.l2.demand_misses::total                 280093                       # number of demand (read+write) misses
system.l2.overall_misses::.cpu.inst               666                       # number of overall misses
system.l2.overall_misses::.cpu.data            279427                       # number of overall misses
system.l2.overall_misses::total                280093                       # number of overall misses
system.l2.demand_miss_latency::.cpu.inst     66545000                       # number of demand (read+write) miss cycles
system.l2.demand_miss_latency::.cpu.data  29790681000                       # number of demand (read+write) miss cycles
system.l2.demand_miss_latency::total      29857226000                       # number of demand (read+write) miss cycles
system.l2.overall_miss_latency::.cpu.inst     66545000                       # number of overall miss cycles
system.l2.overall_miss_latency::.cpu.data  29790681000                       # number of overall miss cycles
system.l2.overall_miss_latency::total     29857226000                       # number of overall miss cycles
system.l2.demand_accesses::.cpu.inst              758                       # number of demand (read+write) accesses
system.l2.demand_accesses::.cpu.data          1054639                       # number of demand (read+write) accesses
system.l2.demand_accesses::total              1055397                       # number of demand (read+write) accesses
system.l2.overall_accesses::.cpu.inst             758                       # number of overall (read+write) accesses
system.l2.overall_accesses::.cpu.data         1054639                       # number of overall (read+write) accesses
system.l2.overall_accesses::total             1055397                       # number of overall (read+write) accesses
system.l2.demand_miss_rate::.cpu.inst        0.878628                       # miss rate for demand accesses
system.l2.demand_miss_rate::.cpu.data        0.264950                       # miss rate for demand accesses
system.l2.demand_miss_rate::total            0.265391                       # miss rate for demand accesses
system.l2.overall_miss_rate::.cpu.inst       0.878628                       # miss rate for overall accesses
system.l2.overall_miss_rate::.cpu.data       0.264950                       # miss rate for overall accesses
system.l2.overall_miss_rate::total           0.265391                       # miss rate for overall accesses
system.l2.demand_avg_miss_latency::.cpu.inst 99917.417417                       # average overall miss latency
system.l2.demand_avg_miss_latency::.cpu.data 106613.466129                       # average overall miss latency
system.l2.demand_avg_miss_latency::total 106597.544387                       # average overall miss latency
system.l2.overall_avg_miss_latency::.cpu.inst 99917.417417                       # average overall miss latency
system.l2.overall_avg_miss_latency::.cpu.data 106613.466129                       # average overall miss latency
system.l2.overall_avg_miss_latency::total 106597.544387                       # average overall miss latency
system.l2.blocked_cycles::no_mshrs                  0                       # number of cycles access was blocked
system.l2.blocked_cycles::no_targets                0                       # number of cycles access was blocked
system.l2.blocked::no_mshrs                         0                       # number of cycles access was blocked
system.l2.blocked::no_targets                       0                       # number of cycles access was blocked
system.l2.avg_blocked_cycles::no_mshrs            nan                       # average number of cycles each access was blocked
system.l2.avg_blocked_cycles::no_targets          nan                       # average number of cycles each access was blocked
system.l2.writebacks::.writebacks              193093                       # number of writebacks
system.l2.writebacks::total                    193093                       # number of writebacks
system.l2.demand_mshr_hits::.cpu.data               4                       # number of demand (read+write) MSHR hits
system.l2.demand_mshr_hits::total                   4                       # number of demand (read+write) MSHR hits
system.l2.overall_mshr_hits::.cpu.data              4                       # number of overall MSHR hits
system.l2.overall_mshr_hits::total                  4                       # number of overall MSHR hits
system.l2.demand_mshr_misses::.cpu.inst           666                       # number of demand (read+write) MSHR misses
system.l2.demand_mshr_misses::.cpu.data        279423                       # number of demand (read+write) MSHR misses
system.l2.demand_mshr_misses::total            280089                       # number of demand (read+write) MSHR misses
system.l2.overall_mshr_misses::.cpu.inst          666                       # number of overall MSHR misses
system.l2.overall_mshr_misses::.cpu.data       279423                       # number of overall MSHR misses
system.l2.overall_mshr_misses::total           280089                       # number of overall MSHR misses
system.l2.demand_mshr_miss_latency::.cpu.inst     53225000                       # number of demand (read+write) MSHR miss cycles
system.l2.demand_mshr_miss_latency::.cpu.data  24201931000                       # number of demand (read+write) MSHR miss cycles
system.l2.demand_mshr_miss_latency::total  24255156000                       # number of demand (read+write) MSHR miss cycles
system.l2.overall_mshr_miss_latency::.cpu.inst     53225000                       # number of overall MSHR miss cycles
system.l2.overall_mshr_miss_latency::.cpu.data  24201931000                       # number of overall MSHR miss cycles
system.l2.overall_mshr_miss_latency::total  24255156000                       # number of overall MSHR miss cycles
system.l2.demand_mshr_miss_rate::.cpu.inst     0.878628                       # mshr miss rate for demand accesses
system.l2.demand_mshr_miss_rate::.cpu.data     0.264947                       # mshr miss rate for demand accesses
system.l2.demand_mshr_miss_rate::total       0.265387                       # mshr miss rate for demand accesses
system.l2.overall_mshr_miss_rate::.cpu.inst     0.878628                       # mshr miss rate for overall accesses
system.l2.overall_mshr_miss_rate::.cpu.data     0.264947                       # mshr miss rate for overall accesses
system.l2.overall_mshr_miss_rate::total      0.265387                       # mshr miss rate for overall accesses
system.l2.demand_avg_mshr_miss_latency::.cpu.inst 79917.417417                       # average overall mshr miss latency
system.l2.demand_avg_mshr_miss_latency::.cpu.data 86613.954470                       # average overall mshr miss latency
system.l2.demand_avg_mshr_miss_latency::total 86598.031340                       # average overall mshr miss latency
system.l2.overall_avg_mshr_miss_latency::.cpu.inst 79917.417417                       # average overall mshr miss latency
system.l2.overall_avg_mshr_miss_latency::.cpu.data 86613.954470                       # average overall mshr miss latency
system.l2.overall_avg_mshr_miss_latency::total 86598.031340                       # average overall mshr miss latency
system.l2.replacements                         271976                       # number of replacements
system.l2.WritebackDirty_hits::.writebacks       944568                       # number of WritebackDirty hits
system.l2.WritebackDirty_hits::total           944568                       # number of WritebackDirty hits
system.l2.WritebackDirty_accesses::.writebacks       944568                       # number of WritebackDirty accesses(hits+misses)
system.l2.WritebackDirty_accesses::total       944568                       # number of WritebackDirty accesses(hits+misses)
system.l2.WritebackClean_hits::.writebacks          234                       # number of WritebackClean hits
system.l2.WritebackClean_hits::total              234                       # number of WritebackClean hits
system.l2.WritebackClean_accesses::.writebacks          234                       # number of WritebackClean accesses(hits+misses)
system.l2.WritebackClean_accesses::total          234                       # number of WritebackClean accesses(hits+misses)
system.l2.ReadExReq_hits::.cpu.data            212798                       # number of ReadExReq hits
system.l2.ReadExReq_hits::total                212798                       # number of ReadExReq hits
system.l2.ReadExReq_misses::.cpu.data          170756                       # number of ReadExReq misses
system.l2.ReadExReq_misses::total              170756                       # number of ReadExReq misses
system.l2.ReadExReq_miss_latency::.cpu.data  18596721000                       # number of ReadExReq miss cycles
system.l2.ReadExReq_miss_latency::total   18596721000                       # number of ReadExReq miss cycles
system.l2.ReadExReq_accesses::.cpu.data        383554                       # number of ReadExReq accesses(hits+misses)
system.l2.ReadExReq_accesses::total            383554                       # number of ReadExReq accesses(hits+misses)
system.l2.ReadExReq_miss_rate::.cpu.data     0.445194                       # miss rate for ReadExReq accesses
system.l2.ReadExReq_miss_rate::total         0.445194                       # miss rate for ReadExReq accesses
system.l2.ReadExReq_avg_miss_latency::.cpu.data 108908.155497                       # average ReadExReq miss latency
system.l2.ReadExReq_avg_miss_latency::total 108908.155497                       # average ReadExReq miss latency
system.l2.ReadExReq_mshr_misses::.cpu.data       170756                       # number of ReadExReq MSHR misses
system.l2.ReadExReq_mshr_misses::total         170756                       # number of ReadExReq MSHR misses
system.l2.ReadExReq_mshr_miss_latency::.cpu.data  15181601000                       # number of ReadExReq MSHR miss cycles
system.l2.ReadExReq_mshr_miss_latency::total  15181601000                       # number of ReadExReq MSHR miss cycles
system.l2.ReadExReq_mshr_miss_rate::.cpu.data     0.445194                       # mshr miss rate for ReadExReq accesses
system.l2.ReadExReq_mshr_miss_rate::total     0.445194                       # mshr miss rate for ReadExReq accesses
system.l2.ReadExReq_avg_mshr_miss_latency::.cpu.data 88908.155497                       # average ReadExReq mshr miss latency
system.l2.ReadExReq_avg_mshr_miss_latency::total 88908.155497                       # average ReadExReq mshr miss latency
system.l2.ReadCleanReq_hits::.cpu.inst             92                       # number of ReadCleanReq hits
system.l2.ReadCleanReq_hits::total                 92                       # number of ReadCleanReq hits
system.l2.ReadCleanReq_misses::.cpu.inst          666                       # number of ReadCleanReq misses
system.l2.ReadCleanReq_misses::total              666                       # number of ReadCleanReq misses
system.l2.ReadCleanReq_miss_latency::.cpu.inst     66545000                       # number of ReadCleanReq miss cycles
system.l2.ReadCleanReq_miss_latency::total     66545000                       # number of ReadCleanReq miss cycles
system.l2.ReadCleanReq_accesses::.cpu.inst          758                       # number of ReadCleanReq accesses(hits+misses)
system.l2.ReadCleanReq_accesses::total            758                       # number of ReadCleanReq accesses(hits+misses)
system.l2.ReadCleanReq_miss_rate::.cpu.inst     0.878628                       # miss rate for ReadCleanReq accesses
system.l2.ReadCleanReq_miss_rate::total      0.878628                       # miss rate for ReadCleanReq accesses
system.l2.ReadCleanReq_avg_miss_latency::.cpu.inst 99917.417417                       # average ReadCleanReq miss latency
system.l2.ReadCleanReq_avg_miss_latency::total 99917.417417                       # average ReadCleanReq miss latency
system.l2.ReadCleanReq_mshr_misses::.cpu.inst          666                       # number of ReadCleanReq MSHR misses
system.l2.ReadCleanReq_mshr_misses::total          666                       # number of ReadCleanReq MSHR misses
system.l2.ReadCleanReq_mshr_miss_latency::.cpu.inst     53225000                       # number of ReadCleanReq MSHR miss cycles
system.l2.ReadCleanReq_mshr_miss_latency::total     53225000                       # number of ReadCleanReq MSHR miss cycles
system.l2.ReadCleanReq_mshr_miss_rate::.cpu.inst     0.878628                       # mshr miss rate for ReadCleanReq accesses
system.l2.ReadCleanReq_mshr_miss_rate::total     0.878628                       # mshr miss rate for ReadCleanReq accesses
system.l2.ReadCleanReq_avg_mshr_miss_latency::.cpu.inst 79917.417417                       # average ReadCleanReq mshr miss latency
system.l2.ReadCleanReq_avg_mshr_miss_latency::total 79917.417417                       # average ReadCleanReq mshr miss latency
system.l2.ReadSharedReq_hits::.cpu.data        562414                       # number of ReadSharedReq hits
system.l2.ReadSharedReq_hits::total            562414                       # number of ReadSharedReq hits
system.l2.ReadSharedReq_misses::.cpu.data       108671                       # number of ReadSharedReq misses
system.l2.ReadSharedReq_misses::total          108671                       # number of ReadSharedReq misses
system.l2.ReadSharedReq_miss_latency::.cpu.data  11193960000                       # number of ReadSharedReq miss cycles
system.l2.ReadSharedReq_miss_latency::total  11193960000                       # number of ReadSharedReq miss cycles
system.l2.ReadSharedReq_accesses::.cpu.data       671085                       # number of ReadSharedReq accesses(hits+misses)
system.l2.ReadSharedReq_accesses::total        671085                       # number of ReadSharedReq accesses(hits+misses)
system.l2.ReadSharedReq_miss_rate::.cpu.data     0.161933                       # miss rate for ReadSharedReq accesses
system.l2.ReadSharedReq_miss_rate::total     0.161933                       # miss rate for ReadSharedReq accesses
system.l2.ReadSharedReq_avg_miss_latency::.cpu.data 103007.794168                       # average ReadSharedReq miss latency
system.l2.ReadSharedReq_avg_miss_latency::total 103007.794168                       # average ReadSharedReq miss latency
system.l2.ReadSharedReq_mshr_hits::.cpu.data            4                       # number of ReadSharedReq MSHR hits
system.l2.ReadSharedReq_mshr_hits::total            4                       # number of ReadSharedReq MSHR hits
system.l2.ReadSharedReq_mshr_misses::.cpu.data       108667                       # number of ReadSharedReq MSHR misses
system.l2.ReadSharedReq_mshr_misses::total       108667                       # number of ReadSharedReq MSHR misses
system.l2.ReadSharedReq_mshr_miss_latency::.cpu.data   9020330000                       # number of ReadSharedReq MSHR miss cycles
system.l2.ReadSharedReq_mshr_miss_latency::total   9020330000                       # number of ReadSharedReq MSHR miss cycles
system.l2.ReadSharedReq_mshr_miss_rate::.cpu.data     0.161927                       # mshr miss rate for ReadSharedReq accesses
system.l2.ReadSharedReq_mshr_miss_rate::total     0.161927                       # mshr miss rate for ReadSharedReq accesses
system.l2.ReadSharedReq_avg_mshr_miss_latency::.cpu.data 83008.917151                       # average ReadSharedReq mshr miss latency
system.l2.ReadSharedReq_avg_mshr_miss_latency::total 83008.917151                       # average ReadSharedReq mshr miss latency
system.l2.tags.pwrStateResidencyTicks::UNDEFINED 172283475000                       # Cumulative time (in ticks) in various power states
system.l2.tags.tagsinuse                  8089.455637                       # Cycle average of tags in use
system.l2.tags.total_refs                     2108237                       # Total number of references to valid blocks.
system.l2.tags.sampled_refs                    280168                       # Sample count of references to valid blocks.
system.l2.tags.avg_refs                      7.524903                       # Average number of references to valid blocks.
system.l2.tags.warmup_cycle                     87000                       # Cycle when the warmup percentage was hit.
system.l2.tags.occ_blocks::.writebacks       5.994882                       # Average occupied blocks per requestor
system.l2.tags.occ_blocks::.cpu.inst        24.511902                       # Average occupied blocks per requestor
system.l2.tags.occ_blocks::.cpu.data      8058.948853                       # Average occupied blocks per requestor
system.l2.tags.occ_percent::.writebacks      0.000732                       # Average percentage of cache occupancy
system.l2.tags.occ_percent::.cpu.inst        0.002992                       # Average percentage of cache occupancy
system.l2.tags.occ_percent::.cpu.data        0.983758                       # Average percentage of cache occupancy
system.l2.tags.occ_percent::total            0.987482                       # Average percentage of cache occupancy
system.l2.tags.occ_task_id_blocks::1024          8192                       # Occupied blocks per task id
system.l2.tags.age_task_id_blocks_1024::0          100                       # Occupied blocks per task id
system.l2.tags.age_task_id_blocks_1024::1          292                       # Occupied blocks per task id
system.l2.tags.age_task_id_blocks_1024::2         2432                       # Occupied blocks per task id
system.l2.tags.age_task_id_blocks_1024::3         5100                       # Occupied blocks per task id
system.l2.tags.age_task_id_blocks_1024::4          268                       # Occupied blocks per task id
system.l2.tags.occ_task_id_percent::1024            1                       # Percentage of cache occupancy per task id
system.l2.tags.tag_accesses                   8713132                       # Number of tag accesses
system.l2.tags.data_accesses                  8713132                       # Number of data accesses
system.cpu_voltage_domain.voltage                   1                       # Voltage in Volts
system.mem_ctrls.pwrStateResidencyTicks::UNDEFINED 172283475000                       # Cumulative time (in ticks) in various power states
system.mem_ctrls.bytes_read::.cpu.inst          42624                       # Number of bytes read from this memory
system.mem_ctrls.bytes_read::.cpu.data       17883072                       # Number of bytes read from this memory
system.mem_ctrls.bytes_read::total           17925696                       # Number of bytes read from this memory
system.mem_ctrls.bytes_inst_read::.cpu.inst        42624                       # Number of instructions bytes read from this memory
system.mem_ctrls.bytes_inst_read::total         42624                       # Number of instructions bytes read from this memory
system.mem_ctrls.bytes_written::.writebacks     12357888                       # Number of bytes written to this memory
system.mem_ctrls.bytes_written::total        12357888                       # Number of bytes written to this memory
system.mem_ctrls.num_reads::.cpu.inst             666                       # Number of read requests responded to by this memory
system.mem_ctrls.num_reads::.cpu.data          279423                       # Number of read requests responded to by this memory
system.mem_ctrls.num_reads::total              280089                       # Number of read requests responded to by this memory
system.mem_ctrls.num_writes::.writebacks       193092                       # Number of write requests responded to by this memory
system.mem_ctrls.num_writes::total             193092                       # Number of write requests responded to by this memory
system.mem_ctrls.bw_read::.cpu.inst            247406                       # Total read bandwidth from this memory (bytes/s)
system.mem_ctrls.bw_read::.cpu.data         103800275                       # Total read bandwidth from this memory (bytes/s)
system.mem_ctrls.bw_read::total             104047681                       # Total read bandwidth from this memory (bytes/s)
system.mem_ctrls.bw_inst_read::.cpu.inst       247406                       # Instruction read bandwidth from this memory (bytes/s)
system.mem_ctrls.bw_inst_read::total           247406                       # Instruction read bandwidth from this memory (bytes/s)
system.mem_ctrls.bw_write::.writebacks       71729967                       # Write bandwidth from this memory (bytes/s)
system.mem_ctrls.bw_write::total             71729967                       # Write bandwidth from this memory (bytes/s)
system.mem_ctrls.bw_total::.writebacks       71729967                       # Total bandwidth to/from this memory (bytes/s)
system.mem_ctrls.bw_total::.cpu.inst           247406                       # Total bandwidth to/from this memory (bytes/s)
system.mem_ctrls.bw_total::.cpu.data        103800275                       # Total bandwidth to/from this memory (bytes/s)
system.mem_ctrls.bw_total::total            175777648                       # Total bandwidth to/from this memory (bytes/s)
system.mem_ctrls.avgPriority_.writebacks::samples    193092.00                       # Average QoS priority value for accepted requests
system.mem_ctrls.avgPriority_.cpu.inst::samples       666.00                       # Average QoS priority value for accepted requests
system.mem_ctrls.avgPriority_.cpu.data::samples    278900.00                       # Average QoS priority value for accepted requests
system.mem_ctrls.priorityMinLatency      0.000000018750                       # per QoS priority minimum request to response latency (s)
system.mem_ctrls.priorityMaxLatency      0.028553470500                       # per QoS priority maximum request to response latency (s)
system.mem_ctrls.numReadWriteTurnArounds        11326                       # Number of turnarounds from READ to WRITE
system.mem_ctrls.numWriteReadTurnArounds        11326                       # Number of turnarounds from WRITE to READ
system.mem_ctrls.numStayReadState              783843                       # Number of times bus staying in READ state
system.mem_ctrls.numStayWriteState             182040                       # Number of times bus staying in WRITE state
system.mem_ctrls.readReqs                      280089                       # Number of read requests accepted
system.mem_ctrls.writeReqs                     193092                       # Number of write requests accepted
system.mem_ctrls.readBursts                    280089                       # Number of DRAM read bursts, including those serviced by the write queue
system.mem_ctrls.writeBursts                   193092                       # Number of DRAM write bursts, including those merged in the write queue
system.mem_ctrls.servicedByWrQ                    523                       # Number of DRAM read bursts serviced by the write queue
system.mem_ctrls.mergedWrBursts                     0                       # Number of DRAM write bursts merged with an existing one
system.mem_ctrls.neitherReadNorWriteReqs            0                       # Number of requests that are neither read nor write
system.mem_ctrls.perBankRdBursts::0             18157                       # Per bank write bursts
system.mem_ctrls.perBankRdBursts::1             17767                       # Per bank write bursts
system.mem_ctrls.perBankRdBursts::2             17491                       # Per bank write bursts
system.mem_ctrls.perBankRdBursts::3             17781                       # Per bank write bursts
system.mem_ctrls.perBankRdBursts::4             18728                       # Per bank write bursts
system.mem_ctrls.perBankRdBursts::5             18113                       # Per bank write bursts
system.mem_ctrls.perBankRdBursts::6             16675                       # Per bank write bursts
system.mem_ctrls.perBankRdBursts::7             17177                       # Per bank write bursts
system.mem_ctrls.perBankRdBursts::8             17581                       # Per bank write bursts
system.mem_ctrls.perBankRdBursts::9             17331                       # Per bank write bursts
system.mem_ctrls.perBankRdBursts::10            16620                       # Per bank write bursts
system.mem_ctrls.perBankRdBursts::11            16407                       # Per bank write bursts
system.mem_ctrls.perBankRdBursts::12            17450                       # Per bank write bursts
system.mem_ctrls.perBankRdBursts::13            17789                       # Per bank write bursts
system.mem_ctrls.perBankRdBursts::14            16921                       # Per bank write bursts
system.mem_ctrls.perBankRdBursts::15            17578                       # Per bank write bursts
system.mem_ctrls.perBankWrBursts::0             12555                       # Per bank write bursts
system.mem_ctrls.perBankWrBursts::1             12203                       # Per bank write bursts
system.mem_ctrls.perBankWrBursts::2             11896                       # Per bank write bursts
system.mem_ctrls.perBankWrBursts::3             12369                       # Per bank write bursts
system.mem_ctrls.perBankWrBursts::4             13559                       # Per bank write bursts
system.mem_ctrls.perBankWrBursts::5             12843                       # Per bank write bursts
system.mem_ctrls.perBankWrBursts::6             11333                       # Per bank write bursts
system.mem_ctrls.perBankWrBursts::7             11692                       # Per bank write bursts
system.mem_ctrls.perBankWrBursts::8             12112                       # Per bank write bursts
system.mem_ctrls.perBankWrBursts::9             12012                       # Per bank write bursts
system.mem_ctrls.perBankWrBursts::10            11409                       # Per bank write bursts
system.mem_ctrls.perBankWrBursts::11            11252                       # Per bank write bursts
system.mem_ctrls.perBankWrBursts::12            12032                       # Per bank write bursts
system.mem_ctrls.perBankWrBursts::13            12266                       # Per bank write bursts
system.mem_ctrls.perBankWrBursts::14            11388                       # Per bank write bursts
system.mem_ctrls.perBankWrBursts::15            12147                       # Per bank write bursts
system.mem_ctrls.avgRdQLen                       1.05                       # Average read queue length when enqueuing
system.mem_ctrls.avgWrQLen                      24.73                       # Average write queue length when enqueuing
system.mem_ctrls.totQLat                   4604478750                       # Total ticks spent queuing
system.mem_ctrls.totBusLat                 1397830000                       # Total ticks spent in databus transfers
system.mem_ctrls.totMemAccLat              9846341250                       # Total ticks spent from burst creation until serviced by the DRAM
system.mem_ctrls.avgQLat                     16470.10                       # Average queueing delay per DRAM burst
system.mem_ctrls.avgBusLat                    5000.00                       # Average bus latency per DRAM burst
system.mem_ctrls.avgMemAccLat                35220.10                       # Average memory access latency per DRAM burst
system.mem_ctrls.numRdRetry                         0                       # Number of times read queue was full causing retry
system.mem_ctrls.numWrRetry                         0                       # Number of times write queue was full causing retry
system.mem_ctrls.readRowHits                   145159                       # Number of row buffer hits during reads
system.mem_ctrls.writeRowHits                   98522                       # Number of row buffer hits during writes
system.mem_ctrls.readRowHitRate                 51.92                       # Row buffer hit rate for reads
system.mem_ctrls.writeRowHitRate                51.02                       # Row buffer hit rate for writes
system.mem_ctrls.readPktSize::0                     0                       # Read request sizes (log2)
system.mem_ctrls.readPktSize::1                     0                       # Read request sizes (log2)
system.mem_ctrls.readPktSize::2                     0                       # Read request sizes (log2)
system.mem_ctrls.readPktSize::3                     0                       # Read request sizes (log2)
system.mem_ctrls.readPktSize::4                     0                       # Read request sizes (log2)
system.mem_ctrls.readPktSize::5                     0                       # Read request sizes (log2)
system.mem_ctrls.readPktSize::6                280089                       # Read request sizes (log2)
system.mem_ctrls.writePktSize::0                    0                       # Write request sizes (log2)
system.mem_ctrls.writePktSize::1                    0                       # Write request sizes (log2)
system.mem_ctrls.writePktSize::2                    0                       # Write request sizes (log2)
system.mem_ctrls.writePktSize::3                    0                       # Write request sizes (log2)
system.mem_ctrls.writePktSize::4                    0                       # Write request sizes (log2)
system.mem_ctrls.writePktSize::5                    0                       # Write request sizes (log2)
system.mem_ctrls.writePktSize::6               193092                       # Write request sizes (log2)
system.mem_ctrls.rdQLenPdf::0                  226631                       # What read queue length does an incoming req see
system.mem_ctrls.rdQLenPdf::1                   52791                       # What read queue length does an incoming req see
system.mem_ctrls.rdQLenPdf::2                      90                       # What read queue length does an incoming req see
system.mem_ctrls.rdQLenPdf::3                      53                       # What read queue length does an incoming req see
system.mem_ctrls.rdQLenPdf::4                       1                       # What read queue length does an incoming req see
system.mem_ctrls.rdQLenPdf::5                       0                       # What read queue length does an incoming req see
system.mem_ctrls.rdQLenPdf::6                       0                       # What read queue length does an incoming req see
system.mem_ctrls.rdQLenPdf::7                       0                       # What read queue length does an incoming req see
system.mem_ctrls.rdQLenPdf::8                       0                       # What read queue length does an incoming req see
system.mem_ctrls.rdQLenPdf::9                       0                       # What read queue length does an incoming req see
system.mem_ctrls.rdQLenPdf::10                      0                       # What read queue length does an incoming req see
system.mem_ctrls.rdQLenPdf::11                      0                       # What read queue length does an incoming req see
system.mem_ctrls.rdQLenPdf::12                      0                       # What read queue length does an incoming req see
system.mem_ctrls.rdQLenPdf::13                      0                       # What read queue length does an incoming req see
system.mem_ctrls.rdQLenPdf::14                      0                       # What read queue length does an incoming req see
system.mem_ctrls.rdQLenPdf::15                      0                       # What read queue length does an incoming req see
system.mem_ctrls.rdQLenPdf::16                      0                       # What read queue length does an incoming req see
system.mem_ctrls.rdQLenPdf::17                      0                       # What read queue length does an incoming req see
system.mem_ctrls.rdQLenPdf::18                      0                       # What read queue length does an incoming req see
system.mem_ctrls.rdQLenPdf::19                      0                       # What read queue length does an incoming req see
system.mem_ctrls.rdQLenPdf::20                      0                       # What read queue length does an incoming req see
system.mem_ctrls.rdQLenPdf::21                      0                       # What read queue length does an incoming req see
system.mem_ctrls.rdQLenPdf::22                      0                       # What read queue length does an incoming req see
system.mem_ctrls.rdQLenPdf::23                      0                       # What read queue length does an incoming req see
system.mem_ctrls.rdQLenPdf::24                      0                       # What read queue length does an incoming req see
system.mem_ctrls.rdQLenPdf::25                      0                       # What read queue length does an incoming req see
system.mem_ctrls.rdQLenPdf::26                      0                       # What read queue length does an incoming req see
system.mem_ctrls.rdQLenPdf::27                      0                       # What read queue length does an incoming req see
system.mem_ctrls.rdQLenPdf::28                      0                       # What read queue length does an incoming req see
system.mem_ctrls.rdQLenPdf::29                      0                       # What read queue length does an incoming req see
system.mem_ctrls.rdQLenPdf::30                      0                       # What read queue length does an incoming req see
system.mem_ctrls.rdQLenPdf::31                      0                       # What read queue length does an incoming req see
system.mem_ctrls.wrQLenPdf::0                       1                       # What write queue length does an incoming req see
system.mem_ctrls.wrQLenPdf::1                       1                       # What write queue length does an incoming req see
system.mem_ctrls.wrQLenPdf::2                       1                       # What write queue length does an incoming req see
system.mem_ctrls.wrQLenPdf::3                       1                       # What write queue length does an incoming req see
system.mem_ctrls.wrQLenPdf::4                       1                       # What write queue length does an incoming req see
system.mem_ctrls.wrQLenPdf::5                       1                       # What write queue length does an incoming req see
system.mem_ctrls.wrQLenPdf::6                       1                       # What write queue length does an incoming req see
system.mem_ctrls.wrQLenPdf::7                       1                       # What write queue length does an incoming req see
system.mem_ctrls.wrQLenPdf::8                       1                       # What write queue length does an incoming req see
system.mem_ctrls.wrQLenPdf::9                       1                       # What write queue length does an incoming req see
system.mem_ctrls.wrQLenPdf::10                      1                       # What write queue length does an incoming req see
system.mem_ctrls.wrQLenPdf::11                      1                       # What write queue length does an incoming req see
system.mem_ctrls.wrQLenPdf::12                      1                       # What write queue length does an incoming req see
system.mem_ctrls.wrQLenPdf::13                      1                       # What write queue length does an incoming req see
system.mem_ctrls.wrQLenPdf::14                      1                       # What write queue length does an incoming req see
system.mem_ctrls.wrQLenPdf::15                   5477                       # What write queue length does an incoming req see
system.mem_ctrls.wrQLenPdf::16                   5789                       # What write queue length does an incoming req see
system.mem_ctrls.wrQLenPdf::17                  11092                       # What write queue length does an incoming req see
system.mem_ctrls.wrQLenPdf::18                  11414                       # What write queue length does an incoming req see
system.mem_ctrls.wrQLenPdf::19                  11406                       # What write queue length does an incoming req see
system.mem_ctrls.wrQLenPdf::20                  11396                       # What write queue length does an incoming req see
system.mem_ctrls.wrQLenPdf::21                  11461                       # What write queue length does an incoming req see
system.mem_ctrls.wrQLenPdf::22                  11401                       # What write queue length does an incoming req see
system.mem_ctrls.wrQLenPdf::23                  11377                       # What write queue length does an incoming req see
system.mem_ctrls.wrQLenPdf::24                  11415                       # What write queue length does an incoming req see
system.mem_ctrls.wrQLenPdf::25                  11388                       # What write queue length does an incoming req see
system.mem_ctrls.wrQLenPdf::26                  11353                       # What write queue length does an incoming req see
system.mem_ctrls.wrQLenPdf::27                  11353                       # What write queue length does an incoming req see
system.mem_ctrls.wrQLenPdf::28                  11363                       # What write queue length does an incoming req see
system.mem_ctrls.wrQLenPdf::29                  11358                       # What write queue length does an incoming req see
system.mem_ctrls.wrQLenPdf::30                  11332                       # What write queue length does an incoming req see
system.mem_ctrls.wrQLenPdf::31                  11369                       # What write queue length does an incoming req see
system.mem_ctrls.wrQLenPdf::32                  11326                       # What write queue length does an incoming req see
system.mem_ctrls.wrQLenPdf::33                      7                       # What write queue length does an incoming req see
system.mem_ctrls.wrQLenPdf::34                      0                       # What write queue length does an incoming req see
system.mem_ctrls.wrQLenPdf::35                      0                       # What write queue length does an incoming req see
system.mem_ctrls.wrQLenPdf::36                      0                       # What write queue length does an incoming req see
system.mem_ctrls.wrQLenPdf::37                      0                       # What write queue length does an incoming req see
system.mem_ctrls.wrQLenPdf::38                      0                       # What write queue length does an incoming req see
system.mem_ctrls.wrQLenPdf::39                      0                       # What write queue length does an incoming req see
system.mem_ctrls.wrQLenPdf::40                      0                       # What write queue length does an incoming req see
system.mem_ctrls.wrQLenPdf::41                      0                       # What write queue length does an incoming req see
system.mem_ctrls.wrQLenPdf::42                      0                       # What write queue length does an incoming req see
system.mem_ctrls.wrQLenPdf::43                      0                       # What write queue length does an incoming req see
system.mem_ctrls.wrQLenPdf::44                      0                       # What write queue length does an incoming req see
system.mem_ctrls.wrQLenPdf::45                      0                       # What write queue length does an incoming req see
system.mem_ctrls.wrQLenPdf::46                      0                       # What write queue length does an incoming req see
system.mem_ctrls.wrQLenPdf::47                      0                       # What write queue length does an incoming req see
system.mem_ctrls.wrQLenPdf::48                      0                       # What write queue length does an incoming req see
system.mem_ctrls.wrQLenPdf::49                      0                       # What write queue length does an incoming req see
system.mem_ctrls.wrQLenPdf::50                      0                       # What write queue length does an incoming req see
system.mem_ctrls.wrQLenPdf::51                      0                       # What write queue length does an incoming req see
system.mem_ctrls.wrQLenPdf::52                      0                       # What write queue length does an incoming req see
system.mem_ctrls.wrQLenPdf::53                      0                       # What write queue length does an incoming req see
system.mem_ctrls.wrQLenPdf::54                      0                       # What write queue length does an incoming req see
system.mem_ctrls.wrQLenPdf::55                      0                       # What write queue length does an incoming req see
system.mem_ctrls.wrQLenPdf::56                      0                       # What write queue length does an incoming req see
system.mem_ctrls.wrQLenPdf::57                      0                       # What write queue length does an incoming req see
system.mem_ctrls.wrQLenPdf::58                      0                       # What write queue length does an incoming req see
system.mem_ctrls.wrQLenPdf::59                      0                       # What write queue length does an incoming req see
system.mem_ctrls.wrQLenPdf::60                      0                       # What write queue length does an incoming req see
system.mem_ctrls.wrQLenPdf::61                      0                       # What write queue length does an incoming req see
system.mem_ctrls.wrQLenPdf::62                      0                       # What write queue length does an incoming req see
system.mem_ctrls.wrQLenPdf::63                      0                       # What write queue length does an incoming req see
system.mem_ctrls.bytesPerActivate::samples       228941                       # Bytes accessed per row activation
system.mem_ctrls.bytesPerActivate::mean    132.119979                       # Bytes accessed per row activation
system.mem_ctrls.bytesPerActivate::gmean    88.921831                       # Bytes accessed per row activation
system.mem_ctrls.bytesPerActivate::stdev   189.379951                       # Bytes accessed per row activation
system.mem_ctrls.bytesPerActivate::0-127       175703     76.75%     76.75% # Bytes accessed per row activation
system.mem_ctrls.bytesPerActivate::128-255        27771     12.13%     88.88% # Bytes accessed per row activation
system.mem_ctrls.bytesPerActivate::256-383         5809      2.54%     91.41% # Bytes accessed per row activation
system.mem_ctrls.bytesPerActivate::384-511         2293      1.00%     92.42% # Bytes accessed per row activation
system.mem_ctrls.bytesPerActivate::512-639         9433      4.12%     96.54% # Bytes accessed per row activation
system.mem_ctrls.bytesPerActivate::640-767          760      0.33%     96.87% # Bytes accessed per row activation
system.mem_ctrls.bytesPerActivate::768-895          502      0.22%     97.09% # Bytes accessed per row activation
system.mem_ctrls.bytesPerActivate::896-1023          457      0.20%     97.29% # Bytes accessed per row activation
system.mem_ctrls.bytesPerActivate::1024-1151         6213      2.71%    100.00% # Bytes accessed per row activation
system.mem_ctrls.bytesPerActivate::total       228941                       # Bytes accessed per row activation
system.mem_ctrls.rdPerTurnAround::samples        11326                       # Reads before turning the bus around for writes
system.mem_ctrls.rdPerTurnAround::mean      24.682677                       # Reads before turning the bus around for writes
system.mem_ctrls.rdPerTurnAround::gmean     22.230259                       # Reads before turning the bus around for writes
system.mem_ctrls.rdPerTurnAround::stdev     29.400184                       # Reads before turning the bus around for writes
system.mem_ctrls.rdPerTurnAround::0-63          11170     98.62%     98.62% # Reads before turning the bus around for writes
system.mem_ctrls.rdPerTurnAround::64-127           94      0.83%     99.45% # Reads before turning the bus around for writes
system.mem_ctrls.rdPerTurnAround::128-191           14      0.12%     99.58% # Reads before turning the bus around for writes
system.mem_ctrls.rdPerTurnAround::192-255            7      0.06%     99.64% # Reads before turning the bus around for writes
system.mem_ctrls.rdPerTurnAround::256-319           28      0.25%     99.89% # Reads before turning the bus around for writes
system.mem_ctrls.rdPerTurnAround::320-383            6      0.05%     99.94% # Reads before turning the bus around for writes
system.mem_ctrls.rdPerTurnAround::384-447            1      0.01%     99.95% # Reads before turning the bus around for writes
system.mem_ctrls.rdPerTurnAround::512-575            1      0.01%     99.96% # Reads before turning the bus around for writes
system.mem_ctrls.rdPerTurnAround::576-639            1      0.01%     99.96% # Reads before turning the bus around for writes
[...]
system.cpu.icache.ReadReq_miss_rate::total     0.000078                       # miss rate for ReadReq accesses
system.cpu.icache.ReadReq_avg_miss_latency::.cpu.inst 95387.862797                       # average ReadReq miss latency
system.cpu.icache.ReadReq_avg_miss_latency::total 95387.862797                       # average ReadReq miss latency
system.cpu.icache.ReadReq_mshr_misses::.cpu.inst          758                       # number of ReadReq MSHR misses
system.cpu.icache.ReadReq_mshr_misses::total          758                       # number of ReadReq MSHR misses
system.cpu.icache.ReadReq_mshr_miss_latency::.cpu.inst     70788000                       # number of ReadReq MSHR miss cycles
system.cpu.icache.ReadReq_mshr_miss_latency::total     70788000                       # number of ReadReq MSHR miss cycles
system.cpu.icache.ReadReq_mshr_miss_rate::.cpu.inst     0.000078                       # mshr miss rate for ReadReq accesses
system.cpu.icache.ReadReq_mshr_miss_rate::total     0.000078                       # mshr miss rate for ReadReq accesses
system.cpu.icache.ReadReq_avg_mshr_miss_latency::.cpu.inst 93387.862797                       # average ReadReq mshr miss latency
system.cpu.icache.ReadReq_avg_mshr_miss_latency::total 93387.862797                       # average ReadReq mshr miss latency
system.cpu.icache.tags.pwrStateResidencyTicks::UNDEFINED 172283475000                       # Cumulative time (in ticks) in various power states
system.cpu.icache.tags.tagsinuse           422.982195                       # Cycle average of tags in use
system.cpu.icache.tags.total_refs             9664003                       # Total number of references to valid blocks.
system.cpu.icache.tags.sampled_refs               758                       # Sample count of references to valid blocks.
system.cpu.icache.tags.avg_refs          12749.344327                       # Average number of references to valid blocks.
system.cpu.icache.tags.warmup_cycle            108000                       # Cycle when the warmup percentage was hit.
system.cpu.icache.tags.occ_blocks::.cpu.inst   422.982195                       # Average occupied blocks per requestor
system.cpu.icache.tags.occ_percent::.cpu.inst     0.413069                       # Average percentage of cache occupancy
system.cpu.icache.tags.occ_percent::total     0.413069                       # Average percentage of cache occupancy
system.cpu.icache.tags.occ_task_id_blocks::1024          513                       # Occupied blocks per task id
system.cpu.icache.tags.age_task_id_blocks_1024::4          513                       # Occupied blocks per task id
system.cpu.icache.tags.occ_task_id_percent::1024     0.500977                       # Percentage of cache occupancy per task id
system.cpu.icache.tags.tag_accesses           9664761                       # Number of tag accesses
system.cpu.icache.tags.data_accesses          9664761                       # Number of data accesses
system.cpu.dtb.walker.pwrStateResidencyTicks::UNDEFINED 172283475000                       # Cumulative time (in ticks) in various power states
system.cpu.dtb.stage2_mmu.stage2_tlb.walker.pwrStateResidencyTicks::UNDEFINED 172283475000                       # Cumulative time (in ticks) in various power states
system.cpu.dcache.pwrStateResidencyTicks::UNDEFINED 172283475000                       # Cumulative time (in ticks) in various power states
system.cpu.dcache.demand_hits::.cpu.data     50968154                       # number of demand (read+write) hits
system.cpu.dcache.demand_hits::total         50968154                       # number of demand (read+write) hits
system.cpu.dcache.overall_hits::.cpu.data     50968567                       # number of overall hits
system.cpu.dcache.overall_hits::total        50968567                       # number of overall hits
system.cpu.dcache.demand_misses::.cpu.data      1105905                       # number of demand (read+write) misses
system.cpu.dcache.demand_misses::total        1105905                       # number of demand (read+write) misses
system.cpu.dcache.overall_misses::.cpu.data      1113905                       # number of overall misses
system.cpu.dcache.overall_misses::total       1113905                       # number of overall misses
system.cpu.dcache.demand_miss_latency::.cpu.data  52910027000                       # number of demand (read+write) miss cycles
system.cpu.dcache.demand_miss_latency::total  52910027000                       # number of demand (read+write) miss cycles
system.cpu.dcache.overall_miss_latency::.cpu.data  52910027000                       # number of overall miss cycles
system.cpu.dcache.overall_miss_latency::total  52910027000                       # number of overall miss cycles
system.cpu.dcache.demand_accesses::.cpu.data     52074059                       # number of demand (read+write) accesses
system.cpu.dcache.demand_accesses::total     52074059                       # number of demand (read+write) accesses
system.cpu.dcache.overall_accesses::.cpu.data     52082472                       # number of overall (read+write) accesses
system.cpu.dcache.overall_accesses::total     52082472                       # number of overall (read+write) accesses
system.cpu.dcache.demand_miss_rate::.cpu.data     0.021237                       # miss rate for demand accesses
system.cpu.dcache.demand_miss_rate::total     0.021237                       # miss rate for demand accesses
system.cpu.dcache.overall_miss_rate::.cpu.data     0.021387                       # miss rate for overall accesses
system.cpu.dcache.overall_miss_rate::total     0.021387                       # miss rate for overall accesses
system.cpu.dcache.demand_avg_miss_latency::.cpu.data 47843.193584                       # average overall miss latency
system.cpu.dcache.demand_avg_miss_latency::total 47843.193584                       # average overall miss latency
system.cpu.dcache.overall_avg_miss_latency::.cpu.data 47499.586590                       # average overall miss latency
system.cpu.dcache.overall_avg_miss_latency::total 47499.586590                       # average overall miss latency
system.cpu.dcache.blocked_cycles::no_mshrs        82773                       # number of cycles access was blocked
system.cpu.dcache.blocked_cycles::no_targets            0                       # number of cycles access was blocked
system.cpu.dcache.blocked::no_mshrs              3195                       # number of cycles access was blocked
system.cpu.dcache.blocked::no_targets               0                       # number of cycles access was blocked
system.cpu.dcache.avg_blocked_cycles::no_mshrs    25.907042                       # average number of cycles each access was blocked
system.cpu.dcache.avg_blocked_cycles::no_targets          nan                       # average number of cycles each access was blocked
system.cpu.dcache.writebacks::.writebacks       944568                       # number of writebacks
system.cpu.dcache.writebacks::total            944568                       # number of writebacks
system.cpu.dcache.demand_mshr_hits::.cpu.data        59261                       # number of demand (read+write) MSHR hits
system.cpu.dcache.demand_mshr_hits::total        59261                       # number of demand (read+write) MSHR hits
system.cpu.dcache.overall_mshr_hits::.cpu.data        59261                       # number of overall MSHR hits
system.cpu.dcache.overall_mshr_hits::total        59261                       # number of overall MSHR hits
system.cpu.dcache.demand_mshr_misses::.cpu.data      1046644                       # number of demand (read+write) MSHR misses
system.cpu.dcache.demand_mshr_misses::total      1046644                       # number of demand (read+write) MSHR misses
system.cpu.dcache.overall_mshr_misses::.cpu.data      1054639                       # number of overall MSHR misses
system.cpu.dcache.overall_mshr_misses::total      1054639                       # number of overall MSHR misses
system.cpu.dcache.demand_mshr_miss_latency::.cpu.data  48995700000                       # number of demand (read+write) MSHR miss cycles
system.cpu.dcache.demand_mshr_miss_latency::total  48995700000                       # number of demand (read+write) MSHR miss cycles
system.cpu.dcache.overall_mshr_miss_latency::.cpu.data  49778567992                       # number of overall MSHR miss cycles
system.cpu.dcache.overall_mshr_miss_latency::total  49778567992                       # number of overall MSHR miss cycles
system.cpu.dcache.demand_mshr_miss_rate::.cpu.data     0.020099                       # mshr miss rate for demand accesses
system.cpu.dcache.demand_mshr_miss_rate::total     0.020099                       # mshr miss rate for demand accesses
system.cpu.dcache.overall_mshr_miss_rate::.cpu.data     0.020249                       # mshr miss rate for overall accesses
system.cpu.dcache.overall_mshr_miss_rate::total     0.020249                       # mshr miss rate for overall accesses
system.cpu.dcache.demand_avg_mshr_miss_latency::.cpu.data 46812.192111                       # average overall mshr miss latency
system.cpu.dcache.demand_avg_mshr_miss_latency::total 46812.192111                       # average overall mshr miss latency
system.cpu.dcache.overall_avg_mshr_miss_latency::.cpu.data 47199.627543                       # average overall mshr miss latency
system.cpu.dcache.overall_avg_mshr_miss_latency::total 47199.627543                       # average overall mshr miss latency
system.cpu.dcache.replacements                1054126                       # number of replacements
system.cpu.dcache.ReadReq_hits::.cpu.data     40457425                       # number of ReadReq hits
system.cpu.dcache.ReadReq_hits::total        40457425                       # number of ReadReq hits
system.cpu.dcache.ReadReq_misses::.cpu.data       666533                       # number of ReadReq misses
system.cpu.dcache.ReadReq_misses::total        666533                       # number of ReadReq misses
system.cpu.dcache.ReadReq_miss_latency::.cpu.data  26037208000                       # number of ReadReq miss cycles
system.cpu.dcache.ReadReq_miss_latency::total  26037208000                       # number of ReadReq miss cycles
system.cpu.dcache.ReadReq_accesses::.cpu.data     41123958                       # number of ReadReq accesses(hits+misses)
system.cpu.dcache.ReadReq_accesses::total     41123958                       # number of ReadReq accesses(hits+misses)
system.cpu.dcache.ReadReq_miss_rate::.cpu.data     0.016208                       # miss rate for ReadReq accesses
system.cpu.dcache.ReadReq_miss_rate::total     0.016208                       # miss rate for ReadReq accesses
system.cpu.dcache.ReadReq_avg_miss_latency::.cpu.data 39063.644261                       # average ReadReq miss latency
system.cpu.dcache.ReadReq_avg_miss_latency::total 39063.644261                       # average ReadReq miss latency
system.cpu.dcache.ReadReq_mshr_hits::.cpu.data         3325                       # number of ReadReq MSHR hits
system.cpu.dcache.ReadReq_mshr_hits::total         3325                       # number of ReadReq MSHR hits
system.cpu.dcache.ReadReq_mshr_misses::.cpu.data       663208                       # number of ReadReq MSHR misses
system.cpu.dcache.ReadReq_mshr_misses::total       663208                       # number of ReadReq MSHR misses
system.cpu.dcache.ReadReq_mshr_miss_latency::.cpu.data  24561125000                       # number of ReadReq MSHR miss cycles
system.cpu.dcache.ReadReq_mshr_miss_latency::total  24561125000                       # number of ReadReq MSHR miss cycles
system.cpu.dcache.ReadReq_mshr_miss_rate::.cpu.data     0.016127                       # mshr miss rate for ReadReq accesses
system.cpu.dcache.ReadReq_mshr_miss_rate::total     0.016127                       # mshr miss rate for ReadReq accesses
system.cpu.dcache.ReadReq_avg_mshr_miss_latency::.cpu.data 37033.818953                       # average ReadReq mshr miss latency
system.cpu.dcache.ReadReq_avg_mshr_miss_latency::total 37033.818953                       # average ReadReq mshr miss latency
system.cpu.dcache.WriteReq_hits::.cpu.data     10510729                       # number of WriteReq hits
system.cpu.dcache.WriteReq_hits::total       10510729                       # number of WriteReq hits
system.cpu.dcache.WriteReq_misses::.cpu.data       439372                       # number of WriteReq misses
system.cpu.dcache.WriteReq_misses::total       439372                       # number of WriteReq misses
system.cpu.dcache.WriteReq_miss_latency::.cpu.data  26872819000                       # number of WriteReq miss cycles
system.cpu.dcache.WriteReq_miss_latency::total  26872819000                       # number of WriteReq miss cycles
system.cpu.dcache.WriteReq_accesses::.cpu.data     10950101                       # number of WriteReq accesses(hits+misses)
system.cpu.dcache.WriteReq_accesses::total     10950101                       # number of WriteReq accesses(hits+misses)
system.cpu.dcache.WriteReq_miss_rate::.cpu.data     0.040125                       # miss rate for WriteReq accesses
system.cpu.dcache.WriteReq_miss_rate::total     0.040125                       # miss rate for WriteReq accesses
system.cpu.dcache.WriteReq_avg_miss_latency::.cpu.data 61161.883324                       # average WriteReq miss latency
system.cpu.dcache.WriteReq_avg_miss_latency::total 61161.883324                       # average WriteReq miss latency
system.cpu.dcache.WriteReq_mshr_hits::.cpu.data        55936                       # number of WriteReq MSHR hits
system.cpu.dcache.WriteReq_mshr_hits::total        55936                       # number of WriteReq MSHR hits
system.cpu.dcache.WriteReq_mshr_misses::.cpu.data       383436                       # number of WriteReq MSHR misses
system.cpu.dcache.WriteReq_mshr_misses::total       383436                       # number of WriteReq MSHR misses
system.cpu.dcache.WriteReq_mshr_miss_latency::.cpu.data  24434575000                       # number of WriteReq MSHR miss cycles
system.cpu.dcache.WriteReq_mshr_miss_latency::total  24434575000                       # number of WriteReq MSHR miss cycles
system.cpu.dcache.WriteReq_mshr_miss_rate::.cpu.data     0.035017                       # mshr miss rate for WriteReq accesses
system.cpu.dcache.WriteReq_mshr_miss_rate::total     0.035017                       # mshr miss rate for WriteReq accesses
system.cpu.dcache.WriteReq_avg_mshr_miss_latency::.cpu.data 63725.302267                       # average WriteReq mshr miss latency
system.cpu.dcache.WriteReq_avg_mshr_miss_latency::total 63725.302267                       # average WriteReq mshr miss latency
system.cpu.dcache.SoftPFReq_hits::.cpu.data          413                       # number of SoftPFReq hits
system.cpu.dcache.SoftPFReq_hits::total           413                       # number of SoftPFReq hits
system.cpu.dcache.SoftPFReq_misses::.cpu.data         8000                       # number of SoftPFReq misses
system.cpu.dcache.SoftPFReq_misses::total         8000                       # number of SoftPFReq misses
system.cpu.dcache.SoftPFReq_accesses::.cpu.data         8413                       # number of SoftPFReq accesses(hits+misses)
system.cpu.dcache.SoftPFReq_accesses::total         8413                       # number of SoftPFReq accesses(hits+misses)
system.cpu.dcache.SoftPFReq_miss_rate::.cpu.data     0.950909                       # miss rate for SoftPFReq accesses
system.cpu.dcache.SoftPFReq_miss_rate::total     0.950909                       # miss rate for SoftPFReq accesses
system.cpu.dcache.SoftPFReq_mshr_misses::.cpu.data         7995                       # number of SoftPFReq MSHR misses
system.cpu.dcache.SoftPFReq_mshr_misses::total         7995                       # number of SoftPFReq MSHR misses
system.cpu.dcache.SoftPFReq_mshr_miss_latency::.cpu.data    782867992                       # number of SoftPFReq MSHR miss cycles
system.cpu.dcache.SoftPFReq_mshr_miss_latency::total    782867992                       # number of SoftPFReq MSHR miss cycles
system.cpu.dcache.SoftPFReq_mshr_miss_rate::.cpu.data     0.950315                       # mshr miss rate for SoftPFReq accesses
system.cpu.dcache.SoftPFReq_mshr_miss_rate::total     0.950315                       # mshr miss rate for SoftPFReq accesses
system.cpu.dcache.SoftPFReq_avg_mshr_miss_latency::.cpu.data 97919.698812                       # average SoftPFReq mshr miss latency
system.cpu.dcache.SoftPFReq_avg_mshr_miss_latency::total 97919.698812                       # average SoftPFReq mshr miss latency
system.cpu.dcache.LoadLockedReq_hits::.cpu.data           38                       # number of LoadLockedReq hits
system.cpu.dcache.LoadLockedReq_hits::total           38                       # number of LoadLockedReq hits
system.cpu.dcache.LoadLockedReq_accesses::.cpu.data           38                       # number of LoadLockedReq accesses(hits+misses)
system.cpu.dcache.LoadLockedReq_accesses::total           38                       # number of LoadLockedReq accesses(hits+misses)
system.cpu.dcache.StoreCondReq_hits::.cpu.data           38                       # number of StoreCondReq hits
system.cpu.dcache.StoreCondReq_hits::total           38                       # number of StoreCondReq hits
system.cpu.dcache.StoreCondReq_accesses::.cpu.data           38                       # number of StoreCondReq accesses(hits+misses)
system.cpu.dcache.StoreCondReq_accesses::total           38                       # number of StoreCondReq accesses(hits+misses)
system.cpu.dcache.tags.pwrStateResidencyTicks::UNDEFINED 172283475000                       # Cumulative time (in ticks) in various power states
system.cpu.dcache.tags.tagsinuse           507.643405                       # Cycle average of tags in use
system.cpu.dcache.tags.total_refs            52023281                       # Total number of references to valid blocks.
system.cpu.dcache.tags.sampled_refs           1054638                       # Sample count of references to valid blocks.
system.cpu.dcache.tags.avg_refs             49.328093                       # Average number of references to valid blocks.
system.cpu.dcache.tags.warmup_cycle            223000                       # Cycle when the warmup percentage was hit.
system.cpu.dcache.tags.occ_blocks::.cpu.data   507.643405                       # Average occupied blocks per requestor
system.cpu.dcache.tags.occ_percent::.cpu.data     0.991491                       # Average percentage of cache occupancy
system.cpu.dcache.tags.occ_percent::total     0.991491                       # Average percentage of cache occupancy
system.cpu.dcache.tags.occ_task_id_blocks::1024          512                       # Occupied blocks per task id
system.cpu.dcache.tags.age_task_id_blocks_1024::0          107                       # Occupied blocks per task id
system.cpu.dcache.tags.age_task_id_blocks_1024::1          214                       # Occupied blocks per task id
system.cpu.dcache.tags.age_task_id_blocks_1024::2          191                       # Occupied blocks per task id
system.cpu.dcache.tags.occ_task_id_percent::1024            1                       # Percentage of cache occupancy per task id
system.cpu.dcache.tags.tag_accesses          53137186                       # Number of tag accesses
system.cpu.dcache.tags.data_accesses         53137186                       # Number of data accesses
system.cpu.itb.walker.pwrStateResidencyTicks::UNDEFINED 172283475000                       # Cumulative time (in ticks) in various power states
system.cpu.itb.stage2_mmu.stage2_tlb.walker.pwrStateResidencyTicks::UNDEFINED 172283475000                       # Cumulative time (in ticks) in various power states

---------- End Simulation Statistics   ----------
