
---------- Begin Simulation Statistics ----------
final_tick                               169026501000                       # Number of ticks from beginning of simulation (restored from checkpoints and never reset)
host_inst_rate                                 329030                       # Simulator instruction rate (inst/s)
host_mem_usage                                 684800                       # Number of bytes of host memory used
host_op_rate                                   329676                       # Simulator op (including micro ops) rate (op/s)
host_seconds                                   303.92                       # Real time elapsed on the host
host_tick_rate                              556147060                       # Simulator tick rate (ticks/s)
sim_freq                                 1000000000000                       # Frequency of simulated ticks
sim_insts                                   100000001                       # Number of instructions simulated
sim_ops                                     100196363                       # Number of ops (including micro ops) simulated
sim_seconds                                  0.169027                       # Number of seconds simulated
sim_ticks                                169026501000                       # Number of ticks simulated
system.cpu.branchPred.BTBCorrect                    0                       # Number of correct BTB predictions (this stat may not work properly.
system.cpu.branchPred.BTBHitPct             99.694078                       # BTB Hit Percentage
system.cpu.branchPred.BTBHits                 2095413                       # Number of BTB hits
system.cpu.branchPred.BTBLookups              2101843                       # Number of BTB lookups
system.cpu.branchPred.RASInCorrect                  5                       # Number of incorrect RAS predictions.
system.cpu.branchPred.condIncorrect             81341                       # Number of conditional branches incorrect
system.cpu.branchPred.condPredicted           3727698                       # Number of conditional branches predicted
system.cpu.branchPred.indirectHits                291                       # Number of indirect target hits.
system.cpu.branchPred.indirectLookups             809                       # Number of indirect predictor lookups.
system.cpu.branchPred.indirectMisses              518                       # Number of indirect misses.
system.cpu.branchPred.lookups                 4477794                       # Number of BP lookups
system.cpu.branchPred.usedRAS                   65337                       # Number of times the RAS was used to get a target.
system.cpu.branchPredindirectMispredicted          171                       # Number of mispredicted indirect branches.
system.cpu.committedInsts                   100000001                       # Number of instructions committed
system.cpu.committedOps                     100196363                       # Number of ops (including micro ops) committed
system.cpu.cpi                               1.690265                       # CPI: cycles per instruction
system.cpu.discardedOps                        190729                       # Number of ops (including micro ops) which were discarded before commit
system.cpu.dtb.accesses                             0                       # DTB accesses
system.cpu.dtb.align_faults                         0                       # Number of TLB faults due to alignment restrictions
system.cpu.dtb.domain_faults                        0                       # Number of TLB faults due to domain restrictions
system.cpu.dtb.flush_entries                        0                       # Number of entries that have been flushed from TLB
system.cpu.dtb.flush_tlb                            0                       # Number of times complete TLB was flushed
system.cpu.dtb.flush_tlb_asid                       0                       # Number of times TLB was flushed by ASID
system.cpu.dtb.flush_tlb_mva                        0                       # Number of times TLB was flushed by MVA
system.cpu.dtb.flush_tlb_mva_asid                   0                       # Number of times TLB was flushed by MVA & ASID
system.cpu.dtb.hits                                 0                       # DTB hits
system.cpu.dtb.inst_accesses                        0                       # ITB inst accesses
system.cpu.dtb.inst_hits                            0                       # ITB inst hits
system.cpu.dtb.inst_misses                          0                       # ITB inst misses
system.cpu.dtb.misses                               0                       # DTB misses
system.cpu.dtb.perms_faults                         0                       # Number of TLB faults due to permissions restrictions
system.cpu.dtb.prefetch_faults                      0                       # Number of TLB faults due to prefetch
system.cpu.dtb.read_accesses                        0                       # DTB read accesses
system.cpu.dtb.read_hits                            0                       # DTB read hits
system.cpu.dtb.read_misses                          0                       # DTB read misses
system.cpu.dtb.stage2_mmu.stage2_tlb.accesses            0                       # DTB accesses
system.cpu.dtb.stage2_mmu.stage2_tlb.align_faults            0                       # Number of TLB faults due to alignment restrictions
system.cpu.dtb.stage2_mmu.stage2_tlb.domain_faults            0                       # Number of TLB faults due to domain restrictions
system.cpu.dtb.stage2_mmu.stage2_tlb.flush_entries            0                       # Number of entries that have been flushed from TLB
system.cpu.dtb.stage2_mmu.stage2_tlb.flush_tlb            0                       # Number of times complete TLB was flushed
system.cpu.dtb.stage2_mmu.stage2_tlb.flush_tlb_asid            0                       # Number of times TLB was flushed by ASID
system.cpu.dtb.stage2_mmu.stage2_tlb.flush_tlb_mva            0                       # Number of times TLB was flushed by MVA
system.cpu.dtb.stage2_mmu.stage2_tlb.flush_tlb_mva_asid            0                       # Number of times TLB was flushed by MVA & ASID
system.cpu.dtb.stage2_mmu.stage2_tlb.hits            0                       # DTB hits
system.cpu.dtb.stage2_mmu.stage2_tlb.inst_accesses            0                       # ITB inst accesses
system.cpu.dtb.stage2_mmu.stage2_tlb.inst_hits            0                       # ITB inst hits
system.cpu.dtb.stage2_mmu.stage2_tlb.inst_misses            0                       # ITB inst misses
system.cpu.dtb.stage2_mmu.stage2_tlb.misses            0                       # DTB misses
system.cpu.dtb.stage2_mmu.stage2_tlb.perms_faults            0                       # Number of TLB faults due to permissions restrictions
system.cpu.dtb.stage2_mmu.stage2_tlb.prefetch_faults            0                       # Number of TLB faults due to prefetch
system.cpu.dtb.stage2_mmu.stage2_tlb.read_accesses            0                       # DTB read accesses
system.cpu.dtb.stage2_mmu.stage2_tlb.read_hits            0                       # DTB read hits
system.cpu.dtb.stage2_mmu.stage2_tlb.read_misses            0                       # DTB read misses
system.cpu.dtb.stage2_mmu.stage2_tlb.walker.walkRequestOrigin_Requested::Data            0                       # Table walker requests started/completed, data/inst
system.cpu.dtb.stage2_mmu.stage2_tlb.walker.walkRequestOrigin_Requested::Inst            0                       # Table walker requests started/completed, data/inst
system.cpu.dtb.stage2_mmu.stage2_tlb.walker.walkRequestOrigin_Requested::total            0                       # Table walker requests started/completed, data/inst
system.cpu.dtb.stage2_mmu.stage2_tlb.walker.walkRequestOrigin_Completed::Data            0                       # Table walker requests started/completed, data/inst
system.cpu.dtb.stage2_mmu.stage2_tlb.walker.walkRequestOrigin_Completed::Inst            0                       # Table walker requests started/completed, data/inst
system.cpu.dtb.stage2_mmu.stage2_tlb.walker.walkRequestOrigin_Completed::total            0                       # Table walker requests started/completed, data/inst
system.cpu.dtb.stage2_mmu.stage2_tlb.walker.walkRequestOrigin::total            0                       # Table walker requests started/completed, data/inst
system.cpu.dtb.stage2_mmu.stage2_tlb.walker.walks            0                       # Table walker walks requested
system.cpu.dtb.stage2_mmu.stage2_tlb.write_accesses            0                       # DTB write accesses
system.cpu.dtb.stage2_mmu.stage2_tlb.write_hits            0                       # DTB write hits
system.cpu.dtb.stage2_mmu.stage2_tlb.write_misses            0                       # DTB write misses
system.cpu.dtb.walker.walkRequestOrigin_Requested::Data            0                       # Table walker requests started/completed, data/inst
system.cpu.dtb.walker.walkRequestOrigin_Requested::Inst            0                       # Table walker requests started/completed, data/inst
system.cpu.dtb.walker.walkRequestOrigin_Requested::total            0                       # Table walker requests started/completed, data/inst
system.cpu.dtb.walker.walkRequestOrigin_Completed::Data            0                       # Table walker requests started/completed, data/inst
system.cpu.dtb.walker.walkRequestOrigin_Completed::Inst            0                       # Table walker requests started/completed, data/inst
system.cpu.dtb.walker.walkRequestOrigin_Completed::total            0                       # Table walker requests started/completed, data/inst
system.cpu.dtb.walker.walkRequestOrigin::total            0                       # Table walker requests started/completed, data/inst
system.cpu.dtb.walker.walks                         0                       # Table walker walks requested
system.cpu.dtb.write_accesses                       0                       # DTB write accesses
system.cpu.dtb.write_hits                           0                       # DTB write hits
system.cpu.dtb.write_misses                         0                       # DTB write misses
system.cpu.fetch2.amo_instructions                  0                       # Number of memory atomic instructions successfully decoded
system.cpu.fetch2.fp_instructions                   0                       # Number of floating point instructions successfully decoded
system.cpu.fetch2.int_instructions           42610301                       # Number of integer instructions successfully decoded
system.cpu.fetch2.load_instructions          43402495                       # Number of memory load instructions successfully decoded
system.cpu.fetch2.store_instructions         11001444                       # Number of memory store instructions successfully decoded
system.cpu.fetch2.vec_instructions                  0                       # Number of SIMD instructions successfully decoded
system.cpu.idleCycles                        36047435                       # Total number of cycles that the object has spent stopped
system.cpu.ipc                               0.591623                       # IPC: instructions per cycle
system.cpu.itb.accesses                             0                       # DTB accesses
system.cpu.itb.align_faults                         0                       # Number of TLB faults due to alignment restrictions
system.cpu.itb.domain_faults                        0                       # Number of TLB faults due to domain restrictions
system.cpu.itb.flush_entries                        0                       # Number of entries that have been flushed from TLB
system.cpu.itb.flush_tlb                            0                       # Number of times complete TLB was flushed
system.cpu.itb.flush_tlb_asid                       0                       # Number of times TLB was flushed by ASID
system.cpu.itb.flush_tlb_mva                        0                       # Number of times TLB was flushed by MVA
system.cpu.itb.flush_tlb_mva_asid                   0                       # Number of times TLB was flushed by MVA & ASID
system.cpu.itb.hits                                 0                       # DTB hits
system.cpu.itb.inst_accesses                        0                       # ITB inst accesses
system.cpu.itb.inst_hits                            0                       # ITB inst hits
system.cpu.itb.inst_misses                          0                       # ITB inst misses
system.cpu.itb.misses                               0                       # DTB misses
system.cpu.itb.perms_faults                         0                       # Number of TLB faults due to permissions restrictions
system.cpu.itb.prefetch_faults                      0                       # Number of TLB faults due to prefetch
system.cpu.itb.read_accesses                        0                       # DTB read accesses
system.cpu.itb.read_hits                            0                       # DTB read hits
system.cpu.itb.read_misses                          0                       # DTB read misses
system.cpu.itb.stage2_mmu.stage2_tlb.accesses            0                       # DTB accesses
system.cpu.itb.stage2_mmu.stage2_tlb.align_faults            0                       # Number of TLB faults due to alignment restrictions
system.cpu.itb.stage2_mmu.stage2_tlb.domain_faults            0                       # Number of TLB faults due to domain restrictions
system.cpu.itb.stage2_mmu.stage2_tlb.flush_entries            0                       # Number of entries that have been flushed from TLB
system.cpu.itb.stage2_mmu.stage2_tlb.flush_tlb            0                       # Number of times complete TLB was flushed
system.cpu.itb.stage2_mmu.stage2_tlb.flush_tlb_asid            0                       # Number of times TLB was flushed by ASID
system.cpu.itb.stage2_mmu.stage2_tlb.flush_tlb_mva            0                       # Number of times TLB was flushed by MVA
system.cpu.itb.stage2_mmu.stage2_tlb.flush_tlb_mva_asid            0                       # Number of times TLB was flushed by MVA & ASID
system.cpu.itb.stage2_mmu.stage2_tlb.hits            0                       # DTB hits
system.cpu.itb.stage2_mmu.stage2_tlb.inst_accesses            0                       # ITB inst accesses
system.cpu.itb.stage2_mmu.stage2_tlb.inst_hits            0                       # ITB inst hits
system.cpu.itb.stage2_mmu.stage2_tlb.inst_misses            0                       # ITB inst misses
system.cpu.itb.stage2_mmu.stage2_tlb.misses            0                       # DTB misses
system.cpu.itb.stage2_mmu.stage2_tlb.perms_faults            0                       # Number of TLB faults due to permissions restrictions
system.cpu.itb.stage2_mmu.stage2_tlb.prefetch_faults            0                       # Number of TLB faults due to prefetch
system.cpu.itb.stage2_mmu.stage2_tlb.read_accesses            0                       # DTB read accesses
system.cpu.itb.stage2_mmu.stage2_tlb.read_hits            0                       # DTB read hits
system.cpu.itb.stage2_mmu.stage2_tlb.read_misses            0                       # DTB read misses
system.cpu.itb.stage2_mmu.stage2_tlb.walker.walkRequestOrigin_Requested::Data            0                       # Table walker requests started/completed, data/inst
system.cpu.itb.stage2_mmu.stage2_tlb.walker.walkRequestOrigin_Requested::Inst            0                       # Table walker requests started/completed, data/inst
system.cpu.itb.stage2_mmu.stage2_tlb.walker.walkRequestOrigin_Requested::total            0                       # Table walker requests started/completed, data/inst
system.cpu.itb.stage2_mmu.stage2_tlb.walker.walkRequestOrigin_Completed::Data            0                       # Table walker requests started/completed, data/inst
system.cpu.itb.stage2_mmu.stage2_tlb.walker.walkRequestOrigin_Completed::Inst            0                       # Table walker requests started/completed, data/inst
system.cpu.itb.stage2_mmu.stage2_tlb.walker.walkRequestOrigin_Completed::total            0                       # Table walker requests started/completed, data/inst
system.cpu.itb.stage2_mmu.stage2_tlb.walker.walkRequestOrigin::total            0                       # Table walker requests started/completed, data/inst
system.cpu.itb.stage2_mmu.stage2_tlb.walker.walks            0                       # Table walker walks requested
system.cpu.itb.stage2_mmu.stage2_tlb.write_accesses            0                       # DTB write accesses
system.cpu.itb.stage2_mmu.stage2_tlb.write_hits            0                       # DTB write hits
system.cpu.itb.stage2_mmu.stage2_tlb.write_misses            0                       # DTB write misses
system.cpu.itb.walker.walkRequestOrigin_Requested::Data            0                       # Table walker requests started/completed, data/inst
system.cpu.itb.walker.walkRequestOrigin_Requested::Inst            0                       # Table walker requests started/completed, data/inst
system.cpu.itb.walker.walkRequestOrigin_Requested::total            0                       # Table walker requests started/completed, data/inst
system.cpu.itb.walker.walkRequestOrigin_Completed::Data            0                       # Table walker requests started/completed, data/inst
system.cpu.itb.walker.walkRequestOrigin_Completed::Inst            0                       # Table walker requests started/completed, data/inst
system.cpu.itb.walker.walkRequestOrigin_Completed::total            0                       # Table walker requests started/completed, data/inst
system.cpu.itb.walker.walkRequestOrigin::total            0                       # Table walker requests started/completed, data/inst
system.cpu.itb.walker.walks                         0                       # Table walker walks requested
system.cpu.itb.write_accesses                       0                       # DTB write accesses
system.cpu.itb.write_hits                           0                       # DTB write hits
system.cpu.itb.write_misses                         0                       # DTB write misses
system.cpu.numCycles                        169026501                       # number of cpu cycles simulated
system.cpu.numFetchSuspends                         0                       # Number of times Execute suspended instruction fetching
system.cpu.numWorkItemsCompleted                    0                       # number of work items this cpu completed
system.cpu.numWorkItemsStarted                      0                       # number of work items this cpu started
system.cpu.op_class_0::No_OpClass                   0      0.00%      0.00% # Class of committed instruction
system.cpu.op_class_0::IntAlu                46531400     46.44%     46.44% # Class of committed instruction
system.cpu.op_class_0::IntMult                  20720      0.02%     46.46% # Class of committed instruction
system.cpu.op_class_0::IntDiv                       0      0.00%     46.46% # Class of committed instruction
system.cpu.op_class_0::FloatAdd                     0      0.00%     46.46% # Class of committed instruction
system.cpu.op_class_0::FloatCmp                     0      0.00%     46.46% # Class of committed instruction
system.cpu.op_class_0::FloatCvt                     0      0.00%     46.46% # Class of committed instruction
system.cpu.op_class_0::FloatMult                    0      0.00%     46.46% # Class of committed instruction
system.cpu.op_class_0::FloatMultAcc                 0      0.00%     46.46% # Class of committed instruction
system.cpu.op_class_0::FloatDiv                     0      0.00%     46.46% # Class of committed instruction
system.cpu.op_class_0::FloatMisc                    0      0.00%     46.46% # Class of committed instruction
system.cpu.op_class_0::FloatSqrt                    0      0.00%     46.46% # Class of committed instruction
system.cpu.op_class_0::SimdAdd                      0      0.00%     46.46% # Class of committed instruction
system.cpu.op_class_0::SimdAddAcc                   0      0.00%     46.46% # Class of committed instruction
system.cpu.op_class_0::SimdAlu                      0      0.00%     46.46% # Class of committed instruction
system.cpu.op_class_0::SimdCmp                      0      0.00%     46.46% # Class of committed instruction
system.cpu.op_class_0::SimdCvt                      0      0.00%     46.46% # Class of committed instruction
system.cpu.op_class_0::SimdMisc                     0      0.00%     46.46% # Class of committed instruction
system.cpu.op_class_0::SimdMult                     0      0.00%     46.46% # Class of committed instruction
system.cpu.op_class_0::SimdMultAcc                  0      0.00%     46.46% # Class of committed instruction
system.cpu.op_class_0::SimdShift                    0      0.00%     46.46% # Class of committed instruction
system.cpu.op_class_0::SimdShiftAcc                 0      0.00%     46.46% # Class of committed instruction
system.cpu.op_class_0::SimdDiv                      0      0.00%     46.46% # Class of committed instruction
system.cpu.op_class_0::SimdSqrt                     0      0.00%     46.46% # Class of committed instruction
system.cpu.op_class_0::SimdFloatAdd                 0      0.00%     46.46% # Class of committed instruction
system.cpu.op_class_0::SimdFloatAlu                 0      0.00%     46.46% # Class of committed instruction
system.cpu.op_class_0::SimdFloatCmp                 0      0.00%     46.46% # Class of committed instruction
system.cpu.op_class_0::SimdFloatCvt                 0      0.00%     46.46% # Class of committed instruction
system.cpu.op_class_0::SimdFloatDiv                 0      0.00%     46.46% # Class of committed instruction
system.cpu.op_class_0::SimdFloatMisc               18      0.00%     46.46% # Class of committed instruction
system.cpu.op_class_0::SimdFloatMult                0      0.00%     46.46% # Class of committed instruction
system.cpu.op_class_0::SimdFloatMultAcc             0      0.00%     46.46% # Class of committed instruction
system.cpu.op_class_0::SimdFloatSqrt                0      0.00%     46.46% # Class of committed instruction
system.cpu.op_class_0::SimdReduceAdd                0      0.00%     46.46% # Class of committed instruction
system.cpu.op_class_0::SimdReduceAlu                0      0.00%     46.46% # Class of committed instruction
system.cpu.op_class_0::SimdReduceCmp                0      0.00%     46.46% # Class of committed instruction
system.cpu.op_class_0::SimdFloatReduceAdd            0      0.00%     46.46% # Class of committed instruction
system.cpu.op_class_0::SimdFloatReduceCmp            0      0.00%     46.46% # Class of committed instruction
system.cpu.op_class_0::SimdAes                      0      0.00%     46.46% # Class of committed instruction
system.cpu.op_class_0::SimdAesMix                   0      0.00%     46.46% # Class of committed instruction
system.cpu.op_class_0::SimdSha1Hash                 0      0.00%     46.46% # Class of committed instruction
system.cpu.op_class_0::SimdSha1Hash2                0      0.00%     46.46% # Class of committed instruction
system.cpu.op_class_0::SimdSha256Hash               0      0.00%     46.46% # Class of committed instruction
system.cpu.op_class_0::SimdSha256Hash2              0      0.00%     46.46% # Class of committed instruction
system.cpu.op_class_0::SimdShaSigma2                0      0.00%     46.46% # Class of committed instruction
system.cpu.op_class_0::SimdShaSigma3                0      0.00%     46.46% # Class of committed instruction
system.cpu.op_class_0::SimdPredAlu                  0      0.00%     46.46% # Class of committed instruction
system.cpu.op_class_0::MemRead               42693601     42.61%     89.07% # Class of committed instruction
system.cpu.op_class_0::MemWrite              10950624     10.93%    100.00% # Class of committed instruction
system.cpu.op_class_0::FloatMemRead                 0      0.00%    100.00% # Class of committed instruction
system.cpu.op_class_0::FloatMemWrite                0      0.00%    100.00% # Class of committed instruction
system.cpu.op_class_0::IprAccess                    0      0.00%    100.00% # Class of committed instruction
system.cpu.op_class_0::InstPrefetch                 0      0.00%    100.00% # Class of committed instruction
system.cpu.op_class_0::total                100196363                       # Class of committed instruction
system.cpu.tickCycles                       132979066                       # Number of cycles that the object actually ticked
system.cpu.workload.numSyscalls                    84                       # Number of system calls
system.membus.snoop_filter.hit_multi_requests            0                       # Number of requests hitting in the snoop filter with multiple (>1) holders of the requested data.
system.membus.snoop_filter.hit_multi_snoops            0                       # Number of snoops hitting in the snoop filter with multiple (>1) holders of the requested data.
system.membus.snoop_filter.hit_single_requests       277903                       # Number of requests hitting in the snoop filter with a single holder of the requested data.
system.membus.snoop_filter.hit_single_snoops            0                       # Number of snoops hitting in the snoop filter with a single holder of the requested data.
system.membus.snoop_filter.tot_requests        564501                       # Total number of requests made to the snoop filter.
system.membus.snoop_filter.tot_snoops               0                       # Total number of snoops made to the snoop filter.
system.tol2bus.snoop_filter.hit_multi_requests          680                       # Number of requests hitting in the snoop filter with multiple (>1) holders of the requested data.
system.tol2bus.snoop_filter.hit_multi_snoops            1                       # Number of snoops hitting in the snoop filter with multiple (>1) holders of the requested data.
system.tol2bus.snoop_filter.hit_single_requests       868246                       # Number of requests hitting in the snoop filter with a single holder of the requested data.
system.tol2bus.snoop_filter.hit_single_snoops        14072                       # Number of snoops hitting in the snoop filter with a single holder of the requested data.
system.tol2bus.snoop_filter.tot_requests      1738028                       # Total number of requests made to the snoop filter.
system.tol2bus.snoop_filter.tot_snoops          14073                       # Total number of snoops made to the snoop filter.
system.membus.pwrStateResidencyTicks::UNDEFINED 169026501000                       # Cumulative time (in ticks) in various power states
system.membus.trans_dist::ReadResp             109652                       # Transaction distribution
system.membus.trans_dist::WritebackDirty       199245                       # Transaction distribution
system.membus.trans_dist::CleanEvict            78649                       # Transaction distribution
system.membus.trans_dist::ReadExReq            176955                       # Transaction distribution
system.membus.trans_dist::ReadExResp           176955                       # Transaction distribution
system.membus.trans_dist::ReadSharedReq        109652                       # Transaction distribution
system.membus.pkt_count_system.l2.mem_side::system.mem_ctrls.port       851108                       # Packet count per connected master and slave (bytes)
system.membus.pkt_count::total                 851108                       # Packet count per connected master and slave (bytes)
system.membus.pkt_size_system.l2.mem_side::system.mem_ctrls.port     31094528                       # Cumulative packet size per connected master and slave (bytes)
system.membus.pkt_size::total                31094528                       # Cumulative packet size per connected master and slave (bytes)
system.membus.snoops                                0                       # Total snoops (count)
system.membus.snoopTraffic                          0                       # Total snoop traffic (bytes)
system.membus.snoop_fanout::samples            286607                       # Request fanout histogram
system.membus.snoop_fanout::mean                    0                       # Request fanout histogram
system.membus.snoop_fanout::stdev                   0                       # Request fanout histogram
system.membus.snoop_fanout::underflows              0      0.00%      0.00% # Request fanout histogram
system.membus.snoop_fanout::0                  286607    100.00%    100.00% # Request fanout histogram
system.membus.snoop_fanout::1                       0      0.00%    100.00% # Request fanout histogram
system.membus.snoop_fanout::overflows               0      0.00%    100.00% # Request fanout histogram
system.membus.snoop_fanout::min_value               0                       # Request fanout histogram
system.membus.snoop_fanout::max_value               0                       # Request fanout histogram
system.membus.snoop_fanout::total              286607                       # Request fanout histogram
system.membus.respLayer1.occupancy         1560121250                       # Layer occupancy (ticks)
system.membus.respLayer1.utilization              0.9                       # Layer utilization (%)
system.membus.reqLayer0.occupancy          1361481000                       # Layer occupancy (ticks)
system.membus.reqLayer0.utilization               0.8                       # Layer utilization (%)
system.tol2bus.pwrStateResidencyTicks::UNDEFINED 169026501000                       # Cumulative time (in ticks) in various power states
system.tol2bus.trans_dist::ReadResp            548085                       # Transaction distribution
system.tol2bus.trans_dist::WritebackDirty       967238                       # Transaction distribution
system.tol2bus.trans_dist::WritebackClean          245                       # Transaction distribution
system.tol2bus.trans_dist::CleanEvict          188010                       # Transaction distribution
system.tol2bus.trans_dist::ReadExReq           321698                       # Transaction distribution
system.tol2bus.trans_dist::ReadExResp          321697                       # Transaction distribution
system.tol2bus.trans_dist::ReadCleanReq           758                       # Transaction distribution
system.tol2bus.trans_dist::ReadSharedReq       547327                       # Transaction distribution
system.tol2bus.pkt_count_system.cpu.icache.mem_side::system.l2.cpu_side         1761                       # Packet count per connected master and slave (bytes)
system.tol2bus.pkt_count_system.cpu.dcache.mem_side::system.l2.cpu_side      2606049                       # Packet count per connected master and slave (bytes)
system.tol2bus.pkt_count::total               2607810                       # Packet count per connected master and slave (bytes)
system.tol2bus.pkt_size_system.cpu.icache.mem_side::system.l2.cpu_side        64192                       # Cumulative packet size per connected master and slave (bytes)
system.tol2bus.pkt_size_system.cpu.dcache.mem_side::system.l2.cpu_side    104769024                       # Cumulative packet size per connected master and slave (bytes)
system.tol2bus.pkt_size::total              104833216                       # Cumulative packet size per connected master and slave (bytes)
system.tol2bus.snoops                          287248                       # Total snoops (count)
system.tol2bus.snoopTraffic                  12751744                       # Total snoop traffic (bytes)
system.tol2bus.snoop_fanout::samples          1157031                       # Request fanout histogram
system.tol2bus.snoop_fanout::mean            0.012752                       # Request fanout histogram
system.tol2bus.snoop_fanout::stdev           0.112212                       # Request fanout histogram
system.tol2bus.snoop_fanout::underflows             0      0.00%      0.00% # Request fanout histogram
system.tol2bus.snoop_fanout::0                1142277     98.72%     98.72% # Request fanout histogram
system.tol2bus.snoop_fanout::1                  14753      1.28%    100.00% # Request fanout histogram
system.tol2bus.snoop_fanout::2                      1      0.00%    100.00% # Request fanout histogram
system.tol2bus.snoop_fanout::overflows              0      0.00%    100.00% # Request fanout histogram
system.tol2bus.snoop_fanout::min_value              0                       # Request fanout histogram
system.tol2bus.snoop_fanout::max_value              2                       # Request fanout histogram
system.tol2bus.snoop_fanout::total            1157031                       # Request fanout histogram
system.tol2bus.reqLayer0.occupancy         3274502000                       # Layer occupancy (ticks)
system.tol2bus.reqLayer0.utilization              1.9                       # Layer utilization (%)
system.tol2bus.respLayer1.occupancy        2607075996                       # Layer occupancy (ticks)
system.tol2bus.respLayer1.utilization             1.5                       # Layer utilization (%)
system.tol2bus.respLayer0.occupancy           2274000                       # Layer occupancy (ticks)
system.tol2bus.respLayer0.utilization             0.0                       # Layer utilization (%)
system.voltage_domain.voltage                       1                       # Voltage in Volts
system.clk_domain.clock                          1000                       # Clock period in ticks
system.l2.pwrStateResidencyTicks::UNDEFINED 169026501000                       # Cumulative time (in ticks) in various power states
system.l2.demand_hits::.cpu.inst                   90                       # number of demand (read+write) hits
system.l2.demand_hits::.cpu.data               583082                       # number of demand (read+write) hits
system.l2.demand_hits::total                   583172                       # number of demand (read+write) hits
system.l2.overall_hits::.cpu.inst                  90                       # number of overall hits
system.l2.overall_hits::.cpu.data              583082                       # number of overall hits
system.l2.overall_hits::total                  583172                       # number of overall hits
system.l2.demand_misses::.cpu.inst                668                       # number of demand (read+write) misses
system.l2.demand_misses::.cpu.data             285943                       # number of demand (read+write) misses
system.l2.demand_misses::total                 286611                       # number of demand (read+write) misses
system.l2.overall_misses::.cpu.inst               668                       # number of overall misses
system.l2.overall_misses::.cpu.data            285943                       # number of overall misses
system.l2.overall_misses::total                286611                       # number of overall misses
system.l2.demand_miss_latency::.cpu.inst     65619000                       # number of demand (read+write) miss cycles
system.l2.demand_miss_latency::.cpu.data  30530748000                       # number of demand (read+write) miss cycles
system.l2.demand_miss_latency::total      30596367000                       # number of demand (read+write) miss cycles
system.l2.overall_miss_latency::.cpu.inst     65619000                       # number of overall miss cycles
system.l2.overall_miss_latency::.cpu.data  30530748000                       # number of overall miss cycles
system.l2.overall_miss_latency::total     30596367000                       # number of overall miss cycles
system.l2.demand_accesses::.cpu.inst              758                       # number of demand (read+write) accesses
system.l2.demand_accesses::.cpu.data           869025                       # number of demand (read+write) accesses
system.l2.demand_accesses::total               869783                       # number of demand (read+write) accesses
system.l2.overall_accesses::.cpu.inst             758                       # number of overall (read+write) accesses
system.l2.overall_accesses::.cpu.data          869025                       # number of overall (read+write) accesses
system.l2.overall_accesses::total              869783                       # number of overall (read+write) accesses
system.l2.demand_miss_rate::.cpu.inst        0.881266                       # miss rate for demand accesses
system.l2.demand_miss_rate::.cpu.data        0.329039                       # miss rate for demand accesses
system.l2.demand_miss_rate::total            0.329520                       # miss rate for demand accesses
system.l2.overall_miss_rate::.cpu.inst       0.881266                       # miss rate for overall accesses
system.l2.overall_miss_rate::.cpu.data       0.329039                       # miss rate for overall accesses
system.l2.overall_miss_rate::total           0.329520                       # miss rate for overall accesses
system.l2.demand_avg_miss_latency::.cpu.inst 98232.035928                       # average overall miss latency
system.l2.demand_avg_miss_latency::.cpu.data 106772.146896                       # average overall miss latency
system.l2.demand_avg_miss_latency::total 106752.242587                       # average overall miss latency
system.l2.overall_avg_miss_latency::.cpu.inst 98232.035928                       # average overall miss latency
system.l2.overall_avg_miss_latency::.cpu.data 106772.146896                       # average overall miss latency
system.l2.overall_avg_miss_latency::total 106752.242587                       # average overall miss latency
system.l2.blocked_cycles::no_mshrs                  0                       # number of cycles access was blocked
system.l2.blocked_cycles::no_targets                0                       # number of cycles access was blocked
system.l2.blocked::no_mshrs                         0                       # number of cycles access was blocked
system.l2.blocked::no_targets                       0                       # number of cycles access was blocked
system.l2.avg_blocked_cycles::no_mshrs            nan                       # average number of cycles each access was blocked
system.l2.avg_blocked_cycles::no_targets          nan                       # average number of cycles each access was blocked
system.l2.writebacks::.writebacks              199246                       # number of writebacks
system.l2.writebacks::total                    199246                       # number of writebacks
system.l2.demand_mshr_hits::.cpu.data               4                       # number of demand (read+write) MSHR hits
system.l2.demand_mshr_hits::total                   4                       # number of demand (read+write) MSHR hits
system.l2.overall_mshr_hits::.cpu.data              4                       # number of overall MSHR hits
system.l2.overall_mshr_hits::total                  4                       # number of overall MSHR hits
system.l2.demand_mshr_misses::.cpu.inst           668                       # number of demand (read+write) MSHR misses
system.l2.demand_mshr_misses::.cpu.data        285939                       # number of demand (read+write) MSHR misses
system.l2.demand_mshr_misses::total            286607                       # number of demand (read+write) MSHR misses
system.l2.overall_mshr_misses::.cpu.inst          668                       # number of overall MSHR misses
system.l2.overall_mshr_misses::.cpu.data       285939                       # number of overall MSHR misses
system.l2.overall_mshr_misses::total           286607                       # number of overall MSHR misses
system.l2.demand_mshr_miss_latency::.cpu.inst     52259000                       # number of demand (read+write) MSHR miss cycles
system.l2.demand_mshr_miss_latency::.cpu.data  24811678000                       # number of demand (read+write) MSHR miss cycles
system.l2.demand_mshr_miss_latency::total  24863937000                       # number of demand (read+write) MSHR miss cycles
system.l2.overall_mshr_miss_latency::.cpu.inst     52259000                       # number of overall MSHR miss cycles
system.l2.overall_mshr_miss_latency::.cpu.data  24811678000                       # number of overall MSHR miss cycles
system.l2.overall_mshr_miss_latency::total  24863937000                       # number of overall MSHR miss cycles
system.l2.demand_mshr_miss_rate::.cpu.inst     0.881266                       # mshr miss rate for demand accesses
system.l2.demand_mshr_miss_rate::.cpu.data     0.329034                       # mshr miss rate for demand accesses
system.l2.demand_mshr_miss_rate::total       0.329516                       # mshr miss rate for demand accesses
system.l2.overall_mshr_miss_rate::.cpu.inst     0.881266                       # mshr miss rate for overall accesses
system.l2.overall_mshr_miss_rate::.cpu.data     0.329034                       # mshr miss rate for overall accesses
system.l2.overall_mshr_miss_rate::total      0.329516                       # mshr miss rate for overall accesses
system.l2.demand_avg_mshr_miss_latency::.cpu.inst 78232.035928                       # average overall mshr miss latency
system.l2.demand_avg_mshr_miss_latency::.cpu.data 86772.626329                       # average overall mshr miss latency
system.l2.demand_avg_mshr_miss_latency::total 86752.720624                       # average overall mshr miss latency
system.l2.overall_avg_mshr_miss_latency::.cpu.inst 78232.035928                       # average overall mshr miss latency
system.l2.overall_avg_mshr_miss_latency::.cpu.data 86772.626329                       # average overall mshr miss latency
system.l2.overall_avg_mshr_miss_latency::total 86752.720624                       # average overall mshr miss latency
system.l2.replacements                         287248                       # number of replacements
system.l2.WritebackDirty_hits::.writebacks       767992                       # number of WritebackDirty hits
system.l2.WritebackDirty_hits::total           767992                       # number of WritebackDirty hits
system.l2.WritebackDirty_accesses::.writebacks       767992                       # number of WritebackDirty accesses(hits+misses)
system.l2.WritebackDirty_accesses::total       767992                       # number of WritebackDirty accesses(hits+misses)
system.l2.WritebackClean_hits::.writebacks          234                       # number of WritebackClean hits
system.l2.WritebackClean_hits::total              234                       # number of WritebackClean hits
system.l2.WritebackClean_accesses::.writebacks          234                       # number of WritebackClean accesses(hits+misses)
system.l2.WritebackClean_accesses::total          234                       # number of WritebackClean accesses(hits+misses)
system.l2.CleanEvict_mshr_misses::.writebacks         4720                       # number of CleanEvict MSHR misses
system.l2.CleanEvict_mshr_misses::total          4720                       # number of CleanEvict MSHR misses
system.l2.CleanEvict_mshr_miss_rate::.writebacks          inf                       # mshr miss rate for CleanEvict accesses
system.l2.CleanEvict_mshr_miss_rate::total          inf                       # mshr miss rate for CleanEvict accesses
system.l2.ReadExReq_hits::.cpu.data            144743                       # number of ReadExReq hits
system.l2.ReadExReq_hits::total                144743                       # number of ReadExReq hits
system.l2.ReadExReq_misses::.cpu.data          176955                       # number of ReadExReq misses
system.l2.ReadExReq_misses::total              176955                       # number of ReadExReq misses
system.l2.ReadExReq_miss_latency::.cpu.data  19284112000                       # number of ReadExReq miss cycles
system.l2.ReadExReq_miss_latency::total   19284112000                       # number of ReadExReq miss cycles
system.l2.ReadExReq_accesses::.cpu.data        321698                       # number of ReadExReq accesses(hits+misses)
system.l2.ReadExReq_accesses::total            321698                       # number of ReadExReq accesses(hits+misses)
system.l2.ReadExReq_miss_rate::.cpu.data     0.550066                       # miss rate for ReadExReq accesses
system.l2.ReadExReq_miss_rate::total         0.550066                       # miss rate for ReadExReq accesses
system.l2.ReadExReq_avg_miss_latency::.cpu.data 108977.491453                       # average ReadExReq miss latency
system.l2.ReadExReq_avg_miss_latency::total 108977.491453                       # average ReadExReq miss latency
system.l2.ReadExReq_mshr_misses::.cpu.data       176955                       # number of ReadExReq MSHR misses
system.l2.ReadExReq_mshr_misses::total         176955                       # number of ReadExReq MSHR misses
system.l2.ReadExReq_mshr_miss_latency::.cpu.data  15745012000                       # number of ReadExReq MSHR miss cycles
system.l2.ReadExReq_mshr_miss_latency::total  15745012000                       # number of ReadExReq MSHR miss cycles
system.l2.ReadExReq_mshr_miss_rate::.cpu.data     0.550066                       # mshr miss rate for ReadExReq accesses
system.l2.ReadExReq_mshr_miss_rate::total     0.550066                       # mshr miss rate for ReadExReq accesses
system.l2.ReadExReq_avg_mshr_miss_latency::.cpu.data 88977.491453                       # average ReadExReq mshr miss latency
system.l2.ReadExReq_avg_mshr_miss_latency::total 88977.491453                       # average ReadExReq mshr miss latency
system.l2.ReadCleanReq_hits::.cpu.inst             90                       # number of ReadCleanReq hits
system.l2.ReadCleanReq_hits::total                 90                       # number of ReadCleanReq hits
system.l2.ReadCleanReq_misses::.cpu.inst          668                       # number of ReadCleanReq misses
system.l2.ReadCleanReq_misses::total              668                       # number of ReadCleanReq misses
system.l2.ReadCleanReq_miss_latency::.cpu.inst     65619000                       # number of ReadCleanReq miss cycles
system.l2.ReadCleanReq_miss_latency::total     65619000                       # number of ReadCleanReq miss cycles
system.l2.ReadCleanReq_accesses::.cpu.inst          758                       # number of ReadCleanReq accesses(hits+misses)
system.l2.ReadCleanReq_accesses::total            758                       # number of ReadCleanReq accesses(hits+misses)
system.l2.ReadCleanReq_miss_rate::.cpu.inst     0.881266                       # miss rate for ReadCleanReq accesses
system.l2.ReadCleanReq_miss_rate::total      0.881266                       # miss rate for ReadCleanReq accesses
system.l2.ReadCleanReq_avg_miss_latency::.cpu.inst 98232.035928                       # average ReadCleanReq miss latency
system.l2.ReadCleanReq_avg_miss_latency::total 98232.035928                       # average ReadCleanReq miss latency
system.l2.ReadCleanReq_mshr_misses::.cpu.inst          668                       # number of ReadCleanReq MSHR misses
system.l2.ReadCleanReq_mshr_misses::total          668                       # number of ReadCleanReq MSHR misses
system.l2.ReadCleanReq_mshr_miss_latency::.cpu.inst     52259000                       # number of ReadCleanReq MSHR miss cycles
system.l2.ReadCleanReq_mshr_miss_latency::total     52259000                       # number of ReadCleanReq MSHR miss cycles
system.l2.ReadCleanReq_mshr_miss_rate::.cpu.inst     0.881266                       # mshr miss rate for ReadCleanReq accesses
system.l2.ReadCleanReq_mshr_miss_rate::total     0.881266                       # mshr miss rate for ReadCleanReq accesses
system.l2.ReadCleanReq_avg_mshr_miss_latency::.cpu.inst 78232.035928                       # average ReadCleanReq mshr miss latency
system.l2.ReadCleanReq_avg_mshr_miss_latency::total 78232.035928                       # average ReadCleanReq mshr miss latency
system.l2.ReadSharedReq_hits::.cpu.data        438339                       # number of ReadSharedReq hits
system.l2.ReadSharedReq_hits::total            438339                       # number of ReadSharedReq hits
system.l2.ReadSharedReq_misses::.cpu.data       108988                       # number of ReadSharedReq misses
system.l2.ReadSharedReq_misses::total          108988                       # number of ReadSharedReq misses
system.l2.ReadSharedReq_miss_latency::.cpu.data  11246636000                       # number of ReadSharedReq miss cycles
system.l2.ReadSharedReq_miss_latency::total  11246636000                       # number of ReadSharedReq miss cycles
system.l2.ReadSharedReq_accesses::.cpu.data       547327                       # number of ReadSharedReq accesses(hits+misses)
system.l2.ReadSharedReq_accesses::total        547327                       # number of ReadSharedReq accesses(hits+misses)
system.l2.ReadSharedReq_miss_rate::.cpu.data     0.199128                       # miss rate for ReadSharedReq accesses
system.l2.ReadSharedReq_miss_rate::total     0.199128                       # miss rate for ReadSharedReq accesses
system.l2.ReadSharedReq_avg_miss_latency::.cpu.data 103191.507322                       # average ReadSharedReq miss latency
system.l2.ReadSharedReq_avg_miss_latency::total 103191.507322                       # average ReadSharedReq miss latency
system.l2.ReadSharedReq_mshr_hits::.cpu.data            4                       # number of ReadSharedReq MSHR hits
system.l2.ReadSharedReq_mshr_hits::total            4                       # number of ReadSharedReq MSHR hits
system.l2.ReadSharedReq_mshr_misses::.cpu.data       108984                       # number of ReadSharedReq MSHR misses
system.l2.ReadSharedReq_mshr_misses::total       108984                       # number of ReadSharedReq MSHR misses
system.l2.ReadSharedReq_mshr_miss_latency::.cpu.data   9066666000                       # number of ReadSharedReq MSHR miss cycles
system.l2.ReadSharedReq_mshr_miss_latency::total   9066666000                       # number of ReadSharedReq MSHR miss cycles
system.l2.ReadSharedReq_mshr_miss_rate::.cpu.data     0.199120                       # mshr miss rate for ReadSharedReq accesses
system.l2.ReadSharedReq_mshr_miss_rate::total     0.199120                       # mshr miss rate for ReadSharedReq accesses
system.l2.ReadSharedReq_avg_mshr_miss_latency::.cpu.data 83192.633781                       # average ReadSharedReq mshr miss latency
system.l2.ReadSharedReq_avg_mshr_miss_latency::total 83192.633781                       # average ReadSharedReq mshr miss latency
system.l2.tags.pwrStateResidencyTicks::UNDEFINED 169026501000                       # Cumulative time (in ticks) in various power states
system.l2.tags.tagsinuse                  8087.599287                       # Cycle average of tags in use
system.l2.tags.total_refs                     1732624                       # Total number of references to valid blocks.
system.l2.tags.sampled_refs                    295440                       # Sample count of references to valid blocks.
system.l2.tags.avg_refs                      5.864555                       # Average number of references to valid blocks.
system.l2.tags.warmup_cycle                     87000                       # Cycle when the warmup percentage was hit.
system.l2.tags.occ_blocks::.writebacks     125.760856                       # Average occupied blocks per requestor
system.l2.tags.occ_blocks::.cpu.inst        26.244078                       # Average occupied blocks per requestor
system.l2.tags.occ_blocks::.cpu.data      7935.594353                       # Average occupied blocks per requestor
system.l2.tags.occ_percent::.writebacks      0.015352                       # Average percentage of cache occupancy
system.l2.tags.occ_percent::.cpu.inst        0.003204                       # Average percentage of cache occupancy
system.l2.tags.occ_percent::.cpu.data        0.968700                       # Average percentage of cache occupancy
system.l2.tags.occ_percent::total            0.987256                       # Average percentage of cache occupancy
system.l2.tags.occ_task_id_blocks::1024          8192                       # Occupied blocks per task id
system.l2.tags.age_task_id_blocks_1024::0          107                       # Occupied blocks per task id
system.l2.tags.age_task_id_blocks_1024::1          274                       # Occupied blocks per task id
system.l2.tags.age_task_id_blocks_1024::2         2235                       # Occupied blocks per task id
system.l2.tags.age_task_id_blocks_1024::3         4972                       # Occupied blocks per task id
system.l2.tags.age_task_id_blocks_1024::4          604                       # Occupied blocks per task id
system.l2.tags.occ_task_id_percent::1024            1                       # Percentage of cache occupancy per task id
system.l2.tags.tag_accesses                   3770136                       # Number of tag accesses
system.l2.tags.data_accesses                  3770136                       # Number of data accesses
system.cpu_voltage_domain.voltage                   1                       # Voltage in Volts
system.mem_ctrls.pwrStateResidencyTicks::UNDEFINED 169026501000                       # Cumulative time (in ticks) in various power states
system.mem_ctrls.bytes_read::.cpu.inst          42752                       # Number of bytes read from this memory
system.mem_ctrls.bytes_read::.cpu.data       18300096                       # Number of bytes read from this memory
system.mem_ctrls.bytes_read::total           18342848                       # Number of bytes read from this memory
system.mem_ctrls.bytes_inst_read::.cpu.inst        42752                       # Number of instructions bytes read from this memory
system.mem_ctrls.bytes_inst_read::total         42752                       # Number of instructions bytes read from this memory
system.mem_ctrls.bytes_written::.writebacks     12751680                       # Number of bytes written to this memory
system.mem_ctrls.bytes_written::total        12751680                       # Number of bytes written to this memory
system.mem_ctrls.num_reads::.cpu.inst             668                       # Number of read requests responded to by this memory
system.mem_ctrls.num_reads::.cpu.data          285939                       # Number of read requests responded to by this memory
system.mem_ctrls.num_reads::total              286607                       # Number of read requests responded to by this memory
system.mem_ctrls.num_writes::.writebacks       199245                       # Number of write requests responded to by this memory
system.mem_ctrls.num_writes::total             199245                       # Number of write requests responded to by this memory
system.mem_ctrls.bw_read::.cpu.inst            252931                       # Total read bandwidth from this memory (bytes/s)
system.mem_ctrls.bw_read::.cpu.data         108267614                       # Total read bandwidth from this memory (bytes/s)
system.mem_ctrls.bw_read::total             108520545                       # Total read bandwidth from this memory (bytes/s)
system.mem_ctrls.bw_inst_read::.cpu.inst       252931                       # Instruction read bandwidth from this memory (bytes/s)
system.mem_ctrls.bw_inst_read::total           252931                       # Instruction read bandwidth from this memory (bytes/s)
system.mem_ctrls.bw_write::.writebacks       75441898                       # Write bandwidth from this memory (bytes/s)
system.mem_ctrls.bw_write::total             75441898                       # Write bandwidth from this memory (bytes/s)
system.mem_ctrls.bw_total::.writebacks       75441898                       # Total bandwidth to/from this memory (bytes/s)
system.mem_ctrls.bw_total::.cpu.inst           252931                       # Total bandwidth to/from this memory (bytes/s)
system.mem_ctrls.bw_total::.cpu.data        108267614                       # Total bandwidth to/from this memory (bytes/s)
system.mem_ctrls.bw_total::total            183962443                       # Total bandwidth to/from this memory (bytes/s)
system.mem_ctrls.avgPriority_.writebacks::samples    199220.00                       # Average QoS priority value for accepted requests
system.mem_ctrls.avgPriority_.cpu.inst::samples       668.00                       # Average QoS priority value for accepted requests
system.mem_ctrls.avgPriority_.cpu.data::samples    284998.00                       # Average QoS priority value for accepted requests
system.mem_ctrls.priorityMinLatency      0.000000018750                       # per QoS priority minimum request to response latency (s)
system.mem_ctrls.priorityMaxLatency      0.008531614500                       # per QoS priority maximum request to response latency (s)
system.mem_ctrls.numReadWriteTurnArounds        11654                       # Number of turnarounds from READ to WRITE
system.mem_ctrls.numWriteReadTurnArounds        11654                       # Number of turnarounds from WRITE to READ
system.mem_ctrls.numStayReadState              800738                       # Number of times bus staying in READ state
system.mem_ctrls.numStayWriteState             187841                       # Number of times bus staying in WRITE state
system.mem_ctrls.readReqs                      286607                       # Number of read requests accepted
system.mem_ctrls.writeReqs                     199245                       # Number of write requests accepted
system.mem_ctrls.readBursts                    286607                       # Number of DRAM read bursts, including those serviced by the write queue
system.mem_ctrls.writeBursts                   199245                       # Number of DRAM write bursts, including those merged in the write queue
system.mem_ctrls.servicedByWrQ                    941                       # Number of DRAM read bursts serviced by the write queue
system.mem_ctrls.mergedWrBursts                    25                       # Number of DRAM write bursts merged with an existing one
system.mem_ctrls.neitherReadNorWriteReqs            0                       # Number of requests that are neither read nor write
system.mem_ctrls.perBankRdBursts::0             18604                       # Per bank write bursts
system.mem_ctrls.perBankRdBursts::1             18503                       # Per bank write bursts
system.mem_ctrls.perBankRdBursts::2             17817                       # Per bank write bursts
system.mem_ctrls.perBankRdBursts::3             18126                       # Per bank write bursts
system.mem_ctrls.perBankRdBursts::4             19108                       # Per bank write bursts
system.mem_ctrls.perBankRdBursts::5             18493                       # Per bank write bursts
system.mem_ctrls.perBankRdBursts::6             17094                       # Per bank write bursts
system.mem_ctrls.perBankRdBursts::7             17491                       # Per bank write bursts
system.mem_ctrls.perBankRdBursts::8             18025                       # Per bank write bursts
system.mem_ctrls.perBankRdBursts::9             17729                       # Per bank write bursts
system.mem_ctrls.perBankRdBursts::10            16951                       # Per bank write bursts
system.mem_ctrls.perBankRdBursts::11            16536                       # Per bank write bursts
system.mem_ctrls.perBankRdBursts::12            17669                       # Per bank write bursts
system.mem_ctrls.perBankRdBursts::13            18250                       # Per bank write bursts
system.mem_ctrls.perBankRdBursts::14            17329                       # Per bank write bursts
system.mem_ctrls.perBankRdBursts::15            17941                       # Per bank write bursts
system.mem_ctrls.perBankWrBursts::0             13020                       # Per bank write bursts
system.mem_ctrls.perBankWrBursts::1             13004                       # Per bank write bursts
system.mem_ctrls.perBankWrBursts::2             12223                       # Per bank write bursts
system.mem_ctrls.perBankWrBursts::3             12729                       # Per bank write bursts
system.mem_ctrls.perBankWrBursts::4             13916                       # Per bank write bursts
system.mem_ctrls.perBankWrBursts::5             13181                       # Per bank write bursts
system.mem_ctrls.perBankWrBursts::6             11769                       # Per bank write bursts
system.mem_ctrls.perBankWrBursts::7             12008                       # Per bank write bursts
system.mem_ctrls.perBankWrBursts::8             12567                       # Per bank write bursts
system.mem_ctrls.perBankWrBursts::9             12431                       # Per bank write bursts
system.mem_ctrls.perBankWrBursts::10            11704                       # Per bank write bursts
system.mem_ctrls.perBankWrBursts::11            11384                       # Per bank write bursts
system.mem_ctrls.perBankWrBursts::12            12232                       # Per bank write bursts
system.mem_ctrls.perBankWrBursts::13            12711                       # Per bank write bursts
system.mem_ctrls.perBankWrBursts::14            11792                       # Per bank write bursts
system.mem_ctrls.perBankWrBursts::15            12527                       # Per bank write bursts
system.mem_ctrls.avgRdQLen                       1.05                       # Average read queue length when enqueuing
system.mem_ctrls.avgWrQLen                      24.80                       # Average write queue length when enqueuing
system.mem_ctrls.totQLat                   4766548000                       # Total ticks spent queuing
system.mem_ctrls.totBusLat                 1428330000                       # Total ticks spent in databus transfers
system.mem_ctrls.totMemAccLat             10122785500                       # Total ticks spent from burst creation until serviced by the DRAM
system.mem_ctrls.avgQLat                     16685.74                       # Average queueing delay per DRAM burst
system.mem_ctrls.avgBusLat                    5000.00                       # Average bus latency per DRAM burst
system.mem_ctrls.avgMemAccLat                35435.74                       # Average memory access latency per DRAM burst
system.mem_ctrls.numRdRetry                         0                       # Number of times read queue was full causing retry
system.mem_ctrls.numWrRetry                         0                       # Number of times write queue was full causing retry
system.mem_ctrls.readRowHits                   145223                       # Number of row buffer hits during reads
system.mem_ctrls.writeRowHits                  101666                       # Number of row buffer hits during writes
system.mem_ctrls.readRowHitRate                 50.84                       # Row buffer hit rate for reads
system.mem_ctrls.writeRowHitRate                51.03                       # Row buffer hit rate for writes
system.mem_ctrls.readPktSize::0                     0                       # Read request sizes (log2)
system.mem_ctrls.readPktSize::1                     0                       # Read request sizes (log2)
system.mem_ctrls.readPktSize::2                     0                       # Read request sizes (log2)
system.mem_ctrls.readPktSize::3                     0                       # Read request sizes (log2)
system.mem_ctrls.readPktSize::4                     0                       # Read request sizes (log2)
system.mem_ctrls.readPktSize::5                     0                       # Read request sizes (log2)
system.mem_ctrls.readPktSize::6                286607                       # Read request sizes (log2)
system.mem_ctrls.writePktSize::0                    0                       # Write request sizes (log2)
system.mem_ctrls.writePktSize::1                    0                       # Write request sizes (log2)
system.mem_ctrls.writePktSize::2                    0                       # Write request sizes (log2)
system.mem_ctrls.writePktSize::3                    0                       # Write request sizes (log2)
system.mem_ctrls.writePktSize::4                    0                       # Write request sizes (log2)
system.mem_ctrls.writePktSize::5                    0                       # Write request sizes (log2)
system.mem_ctrls.writePktSize::6               199245                       # Write request sizes (log2)
system.mem_ctrls.rdQLenPdf::0                  232082                       # What read queue length does an incoming req see
system.mem_ctrls.rdQLenPdf::1                   53331                       # What read queue length does an incoming req see
system.mem_ctrls.rdQLenPdf::2                     146                       # What read queue length does an incoming req see
system.mem_ctrls.rdQLenPdf::3                     106                       # What read queue length does an incoming req see
system.mem_ctrls.rdQLenPdf::4                       1                       # What read queue length does an incoming req see
system.mem_ctrls.rdQLenPdf::5                       0                       # What read queue length does an incoming req see
system.mem_ctrls.rdQLenPdf::6                       0                       # What read queue length does an incoming req see
system.mem_ctrls.rdQLenPdf::7                       0                       # What read queue length does an incoming req see
system.mem_ctrls.rdQLenPdf::8                       0                       # What read queue length does an incoming req see
system.mem_ctrls.rdQLenPdf::9                       0                       # What read queue length does an incoming req see
system.mem_ctrls.rdQLenPdf::10                      0                       # What read queue length does an incoming req see
system.mem_ctrls.rdQLenPdf::11                      0                       # What read queue length does an incoming req see
system.mem_ctrls.rdQLenPdf::12                      0                       # What read queue length does an incoming req see
system.mem_ctrls.rdQLenPdf::13                      0                       # What read queue length does an incoming req see
system.mem_ctrls.rdQLenPdf::14                      0                       # What read queue length does an incoming req see
system.mem_ctrls.rdQLenPdf::15                      0                       # What read queue length does an incoming req see
system.mem_ctrls.rdQLenPdf::16                      0                       # What read queue length does an incoming req see
system.mem_ctrls.rdQLenPdf::17                      0                       # What read queue length does an incoming req see
system.mem_ctrls.rdQLenPdf::18                      0                       # What read queue length does an incoming req see
system.mem_ctrls.rdQLenPdf::19                      0                       # What read queue length does an incoming req see
system.mem_ctrls.rdQLenPdf::20                      0                       # What read queue length does an incoming req see
system.mem_ctrls.rdQLenPdf::21                      0                       # What read queue length does an incoming req see
system.mem_ctrls.rdQLenPdf::22                      0                       # What read queue length does an incoming req see
system.mem_ctrls.rdQLenPdf::23                      0                       # What read queue length does an incoming req see
system.mem_ctrls.rdQLenPdf::24                      0                       # What read queue length does an incoming req see
system.mem_ctrls.rdQLenPdf::25                      0                       # What read queue length does an incoming req see
system.mem_ctrls.rdQLenPdf::26                      0                       # What read queue length does an incoming req see
system.mem_ctrls.rdQLenPdf::27                      0                       # What read queue length does an incoming req see
system.mem_ctrls.rdQLenPdf::28                      0                       # What read queue length does an incoming req see
system.mem_ctrls.rdQLenPdf::29                      0                       # What read queue length does an incoming req see
system.mem_ctrls.rdQLenPdf::30                      0                       # What read queue length does an incoming req see
system.mem_ctrls.rdQLenPdf::31                      0                       # What read queue length does an incoming req see
system.mem_ctrls.wrQLenPdf::0                       1                       # What write queue length does an incoming req see
system.mem_ctrls.wrQLenPdf::1                       1                       # What write queue length does an incoming req see
system.mem_ctrls.wrQLenPdf::2                       1                       # What write queue length does an incoming req see
system.mem_ctrls.wrQLenPdf::3                       1                       # What write queue length does an incoming req see
system.mem_ctrls.wrQLenPdf::4                       1                       # What write queue length does an incoming req see
system.mem_ctrls.wrQLenPdf::5                       1                       # What write queue length does an incoming req see
system.mem_ctrls.wrQLenPdf::6                       1                       # What write queue length does an incoming req see
system.mem_ctrls.wrQLenPdf::7                       1                       # What write queue length does an incoming req see
system.mem_ctrls.wrQLenPdf::8                       1                       # What write queue length does an incoming req see
system.mem_ctrls.wrQLenPdf::9                       1                       # What write queue length does an incoming req see
system.mem_ctrls.wrQLenPdf::10                      1                       # What write queue length does an incoming req see
system.mem_ctrls.wrQLenPdf::11                      1                       # What write queue length does an incoming req see
system.mem_ctrls.wrQLenPdf::12                      1                       # What write queue length does an incoming req see
system.mem_ctrls.wrQLenPdf::13                      1                       # What write queue length does an incoming req see
system.mem_ctrls.wrQLenPdf::14                      1                       # What write queue length does an incoming req see
system.mem_ctrls.wrQLenPdf::15                   5819                       # What write queue length does an incoming req see
system.mem_ctrls.wrQLenPdf::16                   6179                       # What write queue length does an incoming req see
system.mem_ctrls.wrQLenPdf::17                  11277                       # What write queue length does an incoming req see
system.mem_ctrls.wrQLenPdf::18                  11755                       # What write queue length does an incoming req see
system.mem_ctrls.wrQLenPdf::19                  11769                       # What write queue length does an incoming req see
system.mem_ctrls.wrQLenPdf::20                  11742                       # What write queue length does an incoming req see
system.mem_ctrls.wrQLenPdf::21                  11831                       # What write queue length does an incoming req see
system.mem_ctrls.wrQLenPdf::22                  11753                       # What write queue length does an incoming req see
system.mem_ctrls.wrQLenPdf::23                  11766                       # What write queue length does an incoming req see
system.mem_ctrls.wrQLenPdf::24                  11762                       # What write queue length does an incoming req see
system.mem_ctrls.wrQLenPdf::25                  11712                       # What write queue length does an incoming req see
system.mem_ctrls.wrQLenPdf::26                  11711                       # What write queue length does an incoming req see
system.mem_ctrls.wrQLenPdf::27                  11695                       # What write queue length does an incoming req see
system.mem_ctrls.wrQLenPdf::28                  11696                       # What write queue length does an incoming req see
system.mem_ctrls.wrQLenPdf::29                  11702                       # What write queue length does an incoming req see
system.mem_ctrls.wrQLenPdf::30                  11662                       # What write queue length does an incoming req see
system.mem_ctrls.wrQLenPdf::31                  11712                       # What write queue length does an incoming req see
system.mem_ctrls.wrQLenPdf::32                  11654                       # What write queue length does an incoming req see
system.mem_ctrls.wrQLenPdf::33                      7                       # What write queue length does an incoming req see
system.mem_ctrls.wrQLenPdf::34                      1                       # What write queue length does an incoming req see
system.mem_ctrls.wrQLenPdf::35                      0                       # What write queue length does an incoming req see
system.mem_ctrls.wrQLenPdf::36                      0                       # What write queue length does an incoming req see
system.mem_ctrls.wrQLenPdf::37                      0                       # What write queue length does an incoming req see
system.mem_ctrls.wrQLenPdf::38                      0                       # What write queue length does an incoming req see
system.mem_ctrls.wrQLenPdf::39                      0                       # What write queue length does an incoming req see
system.mem_ctrls.wrQLenPdf::40                      0                       # What write queue length does an incoming req see
system.mem_ctrls.wrQLenPdf::41                      0                       # What write queue length does an incoming req see
system.mem_ctrls.wrQLenPdf::42                      0                       # What write queue length does an incoming req see
system.mem_ctrls.wrQLenPdf::43                      0                       # What write queue length does an incoming req see
system.mem_ctrls.wrQLenPdf::44                      0                       # What write queue length does an incoming req see
system.mem_ctrls.wrQLenPdf::45                      0                       # What write queue length does an incoming req see
system.mem_ctrls.wrQLenPdf::46                      0                       # What write queue length does an incoming req see
system.mem_ctrls.wrQLenPdf::47                      0                       # What write queue length does an incoming req see
system.mem_ctrls.wrQLenPdf::48                      0                       # What write queue length does an incoming req see
system.mem_ctrls.wrQLenPdf::49                      0                       # What write queue length does an incoming req see
system.mem_ctrls.wrQLenPdf::50                      0                       # What write queue length does an incoming req see
system.mem_ctrls.wrQLenPdf::51                      0                       # What write queue length does an incoming req see
system.mem_ctrls.wrQLenPdf::52                      0                       # What write queue length does an incoming req see
system.mem_ctrls.wrQLenPdf::53                      0                       # What write queue length does an incoming req see
system.mem_ctrls.wrQLenPdf::54                      0                       # What write queue length does an incoming req see
system.mem_ctrls.wrQLenPdf::55                      0                       # What write queue length does an incoming req see
system.mem_ctrls.wrQLenPdf::56                      0                       # What write queue length does an incoming req see
system.mem_ctrls.wrQLenPdf::57                      0                       # What write queue length does an incoming req see
system.mem_ctrls.wrQLenPdf::58                      0                       # What write queue length does an incoming req see
system.mem_ctrls.wrQLenPdf::59                      0                       # What write queue length does an incoming req see
system.mem_ctrls.wrQLenPdf::60                      0                       # What write queue length does an incoming req see
system.mem_ctrls.wrQLenPdf::61                      0                       # What write queue length does an incoming req see
system.mem_ctrls.wrQLenPdf::62                      0                       # What write queue length does an incoming req see
system.mem_ctrls.wrQLenPdf::63                      0                       # What write queue length does an incoming req see
system.mem_ctrls.bytesPerActivate::samples       237966                       # Bytes accessed per row activation
system.mem_ctrls.bytesPerActivate::mean    130.399536                       # Bytes accessed per row activation
system.mem_ctrls.bytesPerActivate::gmean    88.092344                       # Bytes accessed per row activation
system.mem_ctrls.bytesPerActivate::stdev   188.883905                       # Bytes accessed per row activation
system.mem_ctrls.bytesPerActivate::0-127       183624     77.16%     77.16% # Bytes accessed per row activation
system.mem_ctrls.bytesPerActivate::128-255        29327     12.32%     89.49% # Bytes accessed per row activation
system.mem_ctrls.bytesPerActivate::256-383         5788      2.43%     91.92% # Bytes accessed per row activation
system.mem_ctrls.bytesPerActivate::384-511         1749      0.73%     92.66% # Bytes accessed per row activation
system.mem_ctrls.bytesPerActivate::512-639         9173      3.85%     96.51% # Bytes accessed per row activation
system.mem_ctrls.bytesPerActivate::640-767          667      0.28%     96.79% # Bytes accessed per row activation
system.mem_ctrls.bytesPerActivate::768-895          522      0.22%     97.01% # Bytes accessed per row activation
system.mem_ctrls.bytesPerActivate::896-1023          591      0.25%     97.26% # Bytes accessed per row activation
system.mem_ctrls.bytesPerActivate::1024-1151         6525      2.74%    100.00% # Bytes accessed per row activation
system.mem_ctrls.bytesPerActivate::total       237966                       # Bytes accessed per row activation
system.mem_ctrls.rdPerTurnAround::samples        11654                       # Reads before turning the bus around for writes
system.mem_ctrls.rdPerTurnAround::mean      24.511584                       # Reads before turning the bus around for writes
system.mem_ctrls.rdPerTurnAround::gmean     22.116475                       # Reads before turning the bus around for writes
system.mem_ctrls.rdPerTurnAround::stdev     26.210051                       # Reads before turning the bus around for writes
system.mem_ctrls.rdPerTurnAround::0-63          11446     98.22%     98.22% # Reads before turning the bus around for writes
system.mem_ctrls.rdPerTurnAround::64-127          140      1.20%     99.42% # Reads before turning the bus around for writes
system.mem_ctrls.rdPerTurnAround::128-191           27      0.23%     99.65% # Reads before turning the bus around for writes
system.mem_ctrls.rdPerTurnAround::192-255            9      0.08%     99.73% # Reads before turning the bus around for writes
system.mem_ctrls.rdPerTurnAround::256-319           23      0.20%     99.92% # Reads before turning the bus around for writes
[...]
system.cpu.icache.ReadReq_avg_miss_latency::.cpu.inst 94110.817942                       # average ReadReq miss latency
system.cpu.icache.ReadReq_avg_miss_latency::total 94110.817942                       # average ReadReq miss latency
system.cpu.icache.ReadReq_mshr_misses::.cpu.inst          758                       # number of ReadReq MSHR misses
system.cpu.icache.ReadReq_mshr_misses::total          758                       # number of ReadReq MSHR misses
system.cpu.icache.ReadReq_mshr_miss_latency::.cpu.inst     69820000                       # number of ReadReq MSHR miss cycles
system.cpu.icache.ReadReq_mshr_miss_latency::total     69820000                       # number of ReadReq MSHR miss cycles
system.cpu.icache.ReadReq_mshr_miss_rate::.cpu.inst     0.000078                       # mshr miss rate for ReadReq accesses
system.cpu.icache.ReadReq_mshr_miss_rate::total     0.000078                       # mshr miss rate for ReadReq accesses
system.cpu.icache.ReadReq_avg_mshr_miss_latency::.cpu.inst 92110.817942                       # average ReadReq mshr miss latency
system.cpu.icache.ReadReq_avg_mshr_miss_latency::total 92110.817942                       # average ReadReq mshr miss latency
system.cpu.icache.tags.pwrStateResidencyTicks::UNDEFINED 169026501000                       # Cumulative time (in ticks) in various power states
system.cpu.icache.tags.tagsinuse           422.737613                       # Cycle average of tags in use
system.cpu.icache.tags.total_refs             9663766                       # Total number of references to valid blocks.
system.cpu.icache.tags.sampled_refs               758                       # Sample count of references to valid blocks.
system.cpu.icache.tags.avg_refs          12749.031662                       # Average number of references to valid blocks.
system.cpu.icache.tags.warmup_cycle            108000                       # Cycle when the warmup percentage was hit.
system.cpu.icache.tags.occ_blocks::.cpu.inst   422.737613                       # Average occupied blocks per requestor
system.cpu.icache.tags.occ_percent::.cpu.inst     0.412830                       # Average percentage of cache occupancy
system.cpu.icache.tags.occ_percent::total     0.412830                       # Average percentage of cache occupancy
system.cpu.icache.tags.occ_task_id_blocks::1024          513                       # Occupied blocks per task id
system.cpu.icache.tags.age_task_id_blocks_1024::4          513                       # Occupied blocks per task id
system.cpu.icache.tags.occ_task_id_percent::1024     0.500977                       # Percentage of cache occupancy per task id
system.cpu.icache.tags.tag_accesses           9664524                       # Number of tag accesses
system.cpu.icache.tags.data_accesses          9664524                       # Number of data accesses
system.cpu.dtb.walker.pwrStateResidencyTicks::UNDEFINED 169026501000                       # Cumulative time (in ticks) in various power states
system.cpu.dtb.stage2_mmu.stage2_tlb.walker.pwrStateResidencyTicks::UNDEFINED 169026501000                       # Cumulative time (in ticks) in various power states
system.cpu.dcache.pwrStateResidencyTicks::UNDEFINED 169026501000                       # Cumulative time (in ticks) in various power states
system.cpu.dcache.demand_hits::.cpu.data     51156417                       # number of demand (read+write) hits
system.cpu.dcache.demand_hits::total         51156417                       # number of demand (read+write) hits
system.cpu.dcache.overall_hits::.cpu.data     51156886                       # number of overall hits
system.cpu.dcache.overall_hits::total        51156886                       # number of overall hits
system.cpu.dcache.demand_misses::.cpu.data       916568                       # number of demand (read+write) misses
system.cpu.dcache.demand_misses::total         916568                       # number of demand (read+write) misses
system.cpu.dcache.overall_misses::.cpu.data       924516                       # number of overall misses
system.cpu.dcache.overall_misses::total        924516                       # number of overall misses
system.cpu.dcache.demand_miss_latency::.cpu.data  48298421996                       # number of demand (read+write) miss cycles
system.cpu.dcache.demand_miss_latency::total  48298421996                       # number of demand (read+write) miss cycles
system.cpu.dcache.overall_miss_latency::.cpu.data  48298421996                       # number of overall miss cycles
system.cpu.dcache.overall_miss_latency::total  48298421996                       # number of overall miss cycles
system.cpu.dcache.demand_accesses::.cpu.data     52072985                       # number of demand (read+write) accesses
system.cpu.dcache.demand_accesses::total     52072985                       # number of demand (read+write) accesses
system.cpu.dcache.overall_accesses::.cpu.data     52081402                       # number of overall (read+write) accesses
system.cpu.dcache.overall_accesses::total     52081402                       # number of overall (read+write) accesses
system.cpu.dcache.demand_miss_rate::.cpu.data     0.017602                       # miss rate for demand accesses
system.cpu.dcache.demand_miss_rate::total     0.017602                       # miss rate for demand accesses
system.cpu.dcache.overall_miss_rate::.cpu.data     0.017751                       # miss rate for overall accesses
system.cpu.dcache.overall_miss_rate::total     0.017751                       # miss rate for overall accesses
system.cpu.dcache.demand_avg_miss_latency::.cpu.data 52694.859515                       # average overall miss latency
system.cpu.dcache.demand_avg_miss_latency::total 52694.859515                       # average overall miss latency
system.cpu.dcache.overall_avg_miss_latency::.cpu.data 52241.845459                       # average overall miss latency
system.cpu.dcache.overall_avg_miss_latency::total 52241.845459                       # average overall miss latency
system.cpu.dcache.blocked_cycles::no_mshrs        94124                       # number of cycles access was blocked
system.cpu.dcache.blocked_cycles::no_targets            0                       # number of cycles access was blocked
system.cpu.dcache.blocked::no_mshrs              3127                       # number of cycles access was blocked
system.cpu.dcache.blocked::no_targets               0                       # number of cycles access was blocked
system.cpu.dcache.avg_blocked_cycles::no_mshrs    30.100416                       # average number of cycles each access was blocked
system.cpu.dcache.avg_blocked_cycles::no_targets          nan                       # average number of cycles each access was blocked
system.cpu.dcache.writebacks::.writebacks       767992                       # number of writebacks
system.cpu.dcache.writebacks::total            767992                       # number of writebacks
system.cpu.dcache.demand_mshr_hits::.cpu.data        55486                       # number of demand (read+write) MSHR hits
system.cpu.dcache.demand_mshr_hits::total        55486                       # number of demand (read+write) MSHR hits
system.cpu.dcache.overall_mshr_hits::.cpu.data        55486                       # number of overall MSHR hits
system.cpu.dcache.overall_mshr_hits::total        55486                       # number of overall MSHR hits
system.cpu.dcache.demand_mshr_misses::.cpu.data       861082                       # number of demand (read+write) MSHR misses
system.cpu.dcache.demand_mshr_misses::total       861082                       # number of demand (read+write) MSHR misses
system.cpu.dcache.overall_mshr_misses::.cpu.data       869025                       # number of overall MSHR misses
system.cpu.dcache.overall_mshr_misses::total       869025                       # number of overall MSHR misses
system.cpu.dcache.demand_mshr_miss_latency::.cpu.data  44856633998                       # number of demand (read+write) MSHR miss cycles
system.cpu.dcache.demand_mshr_miss_latency::total  44856633998                       # number of demand (read+write) MSHR miss cycles
system.cpu.dcache.overall_mshr_miss_latency::.cpu.data  45656547997                       # number of overall MSHR miss cycles
system.cpu.dcache.overall_mshr_miss_latency::total  45656547997                       # number of overall MSHR miss cycles
system.cpu.dcache.demand_mshr_miss_rate::.cpu.data     0.016536                       # mshr miss rate for demand accesses
system.cpu.dcache.demand_mshr_miss_rate::total     0.016536                       # mshr miss rate for demand accesses
system.cpu.dcache.overall_mshr_miss_rate::.cpu.data     0.016686                       # mshr miss rate for overall accesses
system.cpu.dcache.overall_mshr_miss_rate::total     0.016686                       # mshr miss rate for overall accesses
system.cpu.dcache.demand_avg_mshr_miss_latency::.cpu.data 52093.336056                       # average overall mshr miss latency
system.cpu.dcache.demand_avg_mshr_miss_latency::total 52093.336056                       # average overall mshr miss latency
system.cpu.dcache.overall_avg_mshr_miss_latency::.cpu.data 52537.669224                       # average overall mshr miss latency
system.cpu.dcache.overall_avg_mshr_miss_latency::total 52537.669224                       # average overall mshr miss latency
system.cpu.dcache.replacements                 868000                       # number of replacements
system.cpu.dcache.ReadReq_hits::.cpu.data     40581804                       # number of ReadReq hits
system.cpu.dcache.ReadReq_hits::total        40581804                       # number of ReadReq hits
system.cpu.dcache.ReadReq_misses::.cpu.data       541080                       # number of ReadReq misses
system.cpu.dcache.ReadReq_misses::total        541080                       # number of ReadReq misses
system.cpu.dcache.ReadReq_miss_latency::.cpu.data  22610990999                       # number of ReadReq miss cycles
system.cpu.dcache.ReadReq_miss_latency::total  22610990999                       # number of ReadReq miss cycles
system.cpu.dcache.ReadReq_accesses::.cpu.data     41122884                       # number of ReadReq accesses(hits+misses)
system.cpu.dcache.ReadReq_accesses::total     41122884                       # number of ReadReq accesses(hits+misses)
system.cpu.dcache.ReadReq_miss_rate::.cpu.data     0.013158                       # miss rate for ReadReq accesses
system.cpu.dcache.ReadReq_miss_rate::total     0.013158                       # miss rate for ReadReq accesses
system.cpu.dcache.ReadReq_avg_miss_latency::.cpu.data 41788.628297                       # average ReadReq miss latency
system.cpu.dcache.ReadReq_avg_miss_latency::total 41788.628297                       # average ReadReq miss latency
system.cpu.dcache.ReadReq_mshr_hits::.cpu.data         1609                       # number of ReadReq MSHR hits
system.cpu.dcache.ReadReq_mshr_hits::total         1609                       # number of ReadReq MSHR hits
system.cpu.dcache.ReadReq_mshr_misses::.cpu.data       539471                       # number of ReadReq MSHR misses
system.cpu.dcache.ReadReq_mshr_misses::total       539471                       # number of ReadReq MSHR misses
system.cpu.dcache.ReadReq_mshr_miss_latency::.cpu.data  21457770999                       # number of ReadReq MSHR miss cycles
system.cpu.dcache.ReadReq_mshr_miss_latency::total  21457770999                       # number of ReadReq MSHR miss cycles
system.cpu.dcache.ReadReq_mshr_miss_rate::.cpu.data     0.013119                       # mshr miss rate for ReadReq accesses
system.cpu.dcache.ReadReq_mshr_miss_rate::total     0.013119                       # mshr miss rate for ReadReq accesses
system.cpu.dcache.ReadReq_avg_mshr_miss_latency::.cpu.data 39775.578296                       # average ReadReq mshr miss latency
system.cpu.dcache.ReadReq_avg_mshr_miss_latency::total 39775.578296                       # average ReadReq mshr miss latency
system.cpu.dcache.WriteReq_hits::.cpu.data     10574613                       # number of WriteReq hits
system.cpu.dcache.WriteReq_hits::total       10574613                       # number of WriteReq hits
system.cpu.dcache.WriteReq_misses::.cpu.data       375488                       # number of WriteReq misses
system.cpu.dcache.WriteReq_misses::total       375488                       # number of WriteReq misses
system.cpu.dcache.WriteReq_miss_latency::.cpu.data  25687430997                       # number of WriteReq miss cycles
system.cpu.dcache.WriteReq_miss_latency::total  25687430997                       # number of WriteReq miss cycles
system.cpu.dcache.WriteReq_accesses::.cpu.data     10950101                       # number of WriteReq accesses(hits+misses)
system.cpu.dcache.WriteReq_accesses::total     10950101                       # number of WriteReq accesses(hits+misses)
system.cpu.dcache.WriteReq_miss_rate::.cpu.data     0.034291                       # miss rate for WriteReq accesses
system.cpu.dcache.WriteReq_miss_rate::total     0.034291                       # miss rate for WriteReq accesses
system.cpu.dcache.WriteReq_avg_miss_latency::.cpu.data 68410.790750                       # average WriteReq miss latency
system.cpu.dcache.WriteReq_avg_miss_latency::total 68410.790750                       # average WriteReq miss latency
system.cpu.dcache.WriteReq_mshr_hits::.cpu.data        53877                       # number of WriteReq MSHR hits
system.cpu.dcache.WriteReq_mshr_hits::total        53877                       # number of WriteReq MSHR hits
system.cpu.dcache.WriteReq_mshr_misses::.cpu.data       321611                       # number of WriteReq MSHR misses
system.cpu.dcache.WriteReq_mshr_misses::total       321611                       # number of WriteReq MSHR misses
system.cpu.dcache.WriteReq_mshr_miss_latency::.cpu.data  23398862999                       # number of WriteReq MSHR miss cycles
system.cpu.dcache.WriteReq_mshr_miss_latency::total  23398862999                       # number of WriteReq MSHR miss cycles
system.cpu.dcache.WriteReq_mshr_miss_rate::.cpu.data     0.029371                       # mshr miss rate for WriteReq accesses
system.cpu.dcache.WriteReq_mshr_miss_rate::total     0.029371                       # mshr miss rate for WriteReq accesses
system.cpu.dcache.WriteReq_avg_mshr_miss_latency::.cpu.data 72755.170063                       # average WriteReq mshr miss latency
system.cpu.dcache.WriteReq_avg_mshr_miss_latency::total 72755.170063                       # average WriteReq mshr miss latency
system.cpu.dcache.SoftPFReq_hits::.cpu.data          469                       # number of SoftPFReq hits
system.cpu.dcache.SoftPFReq_hits::total           469                       # number of SoftPFReq hits
system.cpu.dcache.SoftPFReq_misses::.cpu.data         7948                       # number of SoftPFReq misses
system.cpu.dcache.SoftPFReq_misses::total         7948                       # number of SoftPFReq misses
system.cpu.dcache.SoftPFReq_accesses::.cpu.data         8417                       # number of SoftPFReq accesses(hits+misses)
system.cpu.dcache.SoftPFReq_accesses::total         8417                       # number of SoftPFReq accesses(hits+misses)
system.cpu.dcache.SoftPFReq_miss_rate::.cpu.data     0.944279                       # miss rate for SoftPFReq accesses
system.cpu.dcache.SoftPFReq_miss_rate::total     0.944279                       # miss rate for SoftPFReq accesses
system.cpu.dcache.SoftPFReq_mshr_misses::.cpu.data         7943                       # number of SoftPFReq MSHR misses
system.cpu.dcache.SoftPFReq_mshr_misses::total         7943                       # number of SoftPFReq MSHR misses
system.cpu.dcache.SoftPFReq_mshr_miss_latency::.cpu.data    799913999                       # number of SoftPFReq MSHR miss cycles
system.cpu.dcache.SoftPFReq_mshr_miss_latency::total    799913999                       # number of SoftPFReq MSHR miss cycles
system.cpu.dcache.SoftPFReq_mshr_miss_rate::.cpu.data     0.943685                       # mshr miss rate for SoftPFReq accesses
system.cpu.dcache.SoftPFReq_mshr_miss_rate::total     0.943685                       # mshr miss rate for SoftPFReq accesses
system.cpu.dcache.SoftPFReq_avg_mshr_miss_latency::.cpu.data 100706.785723                       # average SoftPFReq mshr miss latency
system.cpu.dcache.SoftPFReq_avg_mshr_miss_latency::total 100706.785723                       # average SoftPFReq mshr miss latency
system.cpu.dcache.LoadLockedReq_hits::.cpu.data           38                       # number of LoadLockedReq hits
system.cpu.dcache.LoadLockedReq_hits::total           38                       # number of LoadLockedReq hits
system.cpu.dcache.LoadLockedReq_accesses::.cpu.data           38                       # number of LoadLockedReq accesses(hits+misses)
system.cpu.dcache.LoadLockedReq_accesses::total           38                       # number of LoadLockedReq accesses(hits+misses)
system.cpu.dcache.StoreCondReq_hits::.cpu.data           38                       # number of StoreCondReq hits
system.cpu.dcache.StoreCondReq_hits::total           38                       # number of StoreCondReq hits
system.cpu.dcache.StoreCondReq_accesses::.cpu.data           38                       # number of StoreCondReq accesses(hits+misses)
system.cpu.dcache.StoreCondReq_accesses::total           38                       # number of StoreCondReq accesses(hits+misses)
system.cpu.dcache.tags.pwrStateResidencyTicks::UNDEFINED 169026501000                       # Cumulative time (in ticks) in various power states
system.cpu.dcache.tags.tagsinuse          1013.294897                       # Cycle average of tags in use
system.cpu.dcache.tags.total_refs            52025986                       # Total number of references to valid blocks.
system.cpu.dcache.tags.sampled_refs            869024                       # Sample count of references to valid blocks.
system.cpu.dcache.tags.avg_refs             59.867145                       # Average number of references to valid blocks.
system.cpu.dcache.tags.warmup_cycle            223000                       # Cycle when the warmup percentage was hit.
system.cpu.dcache.tags.occ_blocks::.cpu.data  1013.294897                       # Average occupied blocks per requestor
system.cpu.dcache.tags.occ_percent::.cpu.data     0.989546                       # Average percentage of cache occupancy
system.cpu.dcache.tags.occ_percent::total     0.989546                       # Average percentage of cache occupancy
system.cpu.dcache.tags.occ_task_id_blocks::1024         1024                       # Occupied blocks per task id
system.cpu.dcache.tags.age_task_id_blocks_1024::0          106                       # Occupied blocks per task id
system.cpu.dcache.tags.age_task_id_blocks_1024::1          280                       # Occupied blocks per task id
system.cpu.dcache.tags.age_task_id_blocks_1024::2          603                       # Occupied blocks per task id
system.cpu.dcache.tags.age_task_id_blocks_1024::3           35                       # Occupied blocks per task id
system.cpu.dcache.tags.occ_task_id_percent::1024            1                       # Percentage of cache occupancy per task id
system.cpu.dcache.tags.tag_accesses          52950502                       # Number of tag accesses
system.cpu.dcache.tags.data_accesses         52950502                       # Number of data accesses
system.cpu.itb.walker.pwrStateResidencyTicks::UNDEFINED 169026501000                       # Cumulative time (in ticks) in various power states
system.cpu.itb.stage2_mmu.stage2_tlb.walker.pwrStateResidencyTicks::UNDEFINED 169026501000                       # Cumulative time (in ticks) in various power states

---------- End Simulation Statistics   ----------
