
---------- Begin Simulation Statistics ----------
final_tick                               117321707000                       # Number of ticks from beginning of simulation (restored from checkpoints and never reset)
host_inst_rate                                 342299                       # Simulator instruction rate (inst/s)
host_mem_usage                                 686304                       # Number of bytes of host memory used
host_op_rate                                   374585                       # Simulator op (including micro ops) rate (op/s)
host_seconds                                   292.14                       # Real time elapsed on the host
host_tick_rate                              401591210                       # Simulator tick rate (ticks/s)
sim_freq                                 1000000000000                       # Frequency of simulated ticks
sim_insts                                   100000001                       # Number of instructions simulated
sim_ops                                     109431937                       # Number of ops (including micro ops) simulated
sim_seconds                                  0.117322                       # Number of seconds simulated
sim_ticks                                117321707000                       # Number of ticks simulated
system.cpu.branchPred.BTBCorrect                    0                       # Number of correct BTB predictions (this stat may not work properly.
system.cpu.branchPred.BTBHitPct             87.597012                       # BTB Hit Percentage
system.cpu.branchPred.BTBHits                 8748155                       # Number of BTB hits
system.cpu.branchPred.BTBLookups              9986819                       # Number of BTB lookups
system.cpu.branchPred.RASInCorrect                348                       # Number of incorrect RAS predictions.
system.cpu.branchPred.condIncorrect            155025                       # Number of conditional branches incorrect
system.cpu.branchPred.condPredicted          16528359                       # Number of conditional branches predicted
system.cpu.branchPred.indirectHits             300026                       # Number of indirect target hits.
system.cpu.branchPred.indirectLookups          540257                       # Number of indirect predictor lookups.
system.cpu.branchPred.indirectMisses           240231                       # Number of indirect misses.
system.cpu.branchPred.lookups                20635779                       # Number of BP lookups
system.cpu.branchPred.usedRAS                 1050684                       # Number of times the RAS was used to get a target.
system.cpu.branchPredindirectMispredicted         1210                       # Number of mispredicted indirect branches.
system.cpu.committedInsts                   100000001                       # Number of instructions committed
system.cpu.committedOps                     109431937                       # Number of ops (including micro ops) committed
system.cpu.cpi                               1.173217                       # CPI: cycles per instruction
system.cpu.discardedOps                        732728                       # Number of ops (including micro ops) which were discarded before commit
system.cpu.dtb.accesses                             0                       # DTB accesses
system.cpu.dtb.align_faults                         0                       # Number of TLB faults due to alignment restrictions
system.cpu.dtb.domain_faults                        0                       # Number of TLB faults due to domain restrictions
system.cpu.dtb.flush_entries                        0                       # Number of entries that have been flushed from TLB
system.cpu.dtb.flush_tlb                            0                       # Number of times complete TLB was flushed
system.cpu.dtb.flush_tlb_asid                       0                       # Number of times TLB was flushed by ASID
system.cpu.dtb.flush_tlb_mva                        0                       # Number of times TLB was flushed by MVA
system.cpu.dtb.flush_tlb_mva_asid                   0                       # Number of times TLB was flushed by MVA & ASID
system.cpu.dtb.hits                                 0                       # DTB hits
system.cpu.dtb.inst_accesses                        0                       # ITB inst accesses
system.cpu.dtb.inst_hits                            0                       # ITB inst hits
system.cpu.dtb.inst_misses                          0                       # ITB inst misses
system.cpu.dtb.misses                               0                       # DTB misses
system.cpu.dtb.perms_faults                         0                       # Number of TLB faults due to permissions restrictions
system.cpu.dtb.prefetch_faults                      0                       # Number of TLB faults due to prefetch
system.cpu.dtb.read_accesses                        0                       # DTB read accesses
system.cpu.dtb.read_hits                            0                       # DTB read hits
system.cpu.dtb.read_misses                          0                       # DTB read misses
system.cpu.dtb.stage2_mmu.stage2_tlb.accesses            0                       # DTB accesses
system.cpu.dtb.stage2_mmu.stage2_tlb.align_faults            0                       # Number of TLB faults due to alignment restrictions
system.cpu.dtb.stage2_mmu.stage2_tlb.domain_faults            0                       # Number of TLB faults due to domain restrictions
system.cpu.dtb.stage2_mmu.stage2_tlb.flush_entries            0                       # Number of entries that have been flushed from TLB
system.cpu.dtb.stage2_mmu.stage2_tlb.flush_tlb            0                       # Number of times complete TLB was flushed
system.cpu.dtb.stage2_mmu.stage2_tlb.flush_tlb_asid            0                       # Number of times TLB was flushed by ASID
system.cpu.dtb.stage2_mmu.stage2_tlb.flush_tlb_mva            0                       # Number of times TLB was flushed by MVA
system.cpu.dtb.stage2_mmu.stage2_tlb.flush_tlb_mva_asid            0                       # Number of times TLB was flushed by MVA & ASID
system.cpu.dtb.stage2_mmu.stage2_tlb.hits            0                       # DTB hits
system.cpu.dtb.stage2_mmu.stage2_tlb.inst_accesses            0                       # ITB inst accesses
system.cpu.dtb.stage2_mmu.stage2_tlb.inst_hits            0                       # ITB inst hits
system.cpu.dtb.stage2_mmu.stage2_tlb.inst_misses            0                       # ITB inst misses
system.cpu.dtb.stage2_mmu.stage2_tlb.misses            0                       # DTB misses
system.cpu.dtb.stage2_mmu.stage2_tlb.perms_faults            0                       # Number of TLB faults due to permissions restrictions
system.cpu.dtb.stage2_mmu.stage2_tlb.prefetch_faults            0                       # Number of TLB faults due to prefetch
system.cpu.dtb.stage2_mmu.stage2_tlb.read_accesses            0                       # DTB read accesses
system.cpu.dtb.stage2_mmu.stage2_tlb.read_hits            0                       # DTB read hits
system.cpu.dtb.stage2_mmu.stage2_tlb.read_misses            0                       # DTB read misses
system.cpu.dtb.stage2_mmu.stage2_tlb.walker.walkRequestOrigin_Requested::Data            0                       # Table walker requests started/completed, data/inst
system.cpu.dtb.stage2_mmu.stage2_tlb.walker.walkRequestOrigin_Requested::Inst            0                       # Table walker requests started/completed, data/inst
system.cpu.dtb.stage2_mmu.stage2_tlb.walker.walkRequestOrigin_Requested::total            0                       # Table walker requests started/completed, data/inst
system.cpu.dtb.stage2_mmu.stage2_tlb.walker.walkRequestOrigin_Completed::Data            0                       # Table walker requests started/completed, data/inst
system.cpu.dtb.stage2_mmu.stage2_tlb.walker.walkRequestOrigin_Completed::Inst            0                       # Table walker requests started/completed, data/inst
system.cpu.dtb.stage2_mmu.stage2_tlb.walker.walkRequestOrigin_Completed::total            0                       # Table walker requests started/completed, data/inst
system.cpu.dtb.stage2_mmu.stage2_tlb.walker.walkRequestOrigin::total            0                       # Table walker requests started/completed, data/inst
system.cpu.dtb.stage2_mmu.stage2_tlb.walker.walks            0                       # Table walker walks requested
system.cpu.dtb.stage2_mmu.stage2_tlb.write_accesses            0                       # DTB write accesses
system.cpu.dtb.stage2_mmu.stage2_tlb.write_hits            0                       # DTB write hits
system.cpu.dtb.stage2_mmu.stage2_tlb.write_misses            0                       # DTB write misses
system.cpu.dtb.walker.walkRequestOrigin_Requested::Data            0                       # Table walker requests started/completed, data/inst
system.cpu.dtb.walker.walkRequestOrigin_Requested::Inst            0                       # Table walker requests started/completed, data/inst
system.cpu.dtb.walker.walkRequestOrigin_Requested::total            0                       # Table walker requests started/completed, data/inst
system.cpu.dtb.walker.walkRequestOrigin_Completed::Data            0                       # Table walker requests started/completed, data/inst
system.cpu.dtb.walker.walkRequestOrigin_Completed::Inst            0                       # Table walker requests started/completed, data/inst
system.cpu.dtb.walker.walkRequestOrigin_Completed::total            0                       # Table walker requests started/completed, data/inst
system.cpu.dtb.walker.walkRequestOrigin::total            0                       # Table walker requests started/completed, data/inst
system.cpu.dtb.walker.walks                         0                       # Table walker walks requested
system.cpu.dtb.write_accesses                       0                       # DTB write accesses
system.cpu.dtb.write_hits                           0                       # DTB write hits
system.cpu.dtb.write_misses                         0                       # DTB write misses
system.cpu.fetch2.amo_instructions                  0                       # Number of memory atomic instructions successfully decoded
system.cpu.fetch2.fp_instructions                   0                       # Number of floating point instructions successfully decoded
system.cpu.fetch2.int_instructions           49965524                       # Number of integer instructions successfully decoded
system.cpu.fetch2.load_instructions          17199432                       # Number of memory load instructions successfully decoded
system.cpu.fetch2.store_instructions         10036411                       # Number of memory store instructions successfully decoded
system.cpu.fetch2.vec_instructions                  0                       # Number of SIMD instructions successfully decoded
system.cpu.idleCycles                         5986146                       # Total number of cycles that the object has spent stopped
system.cpu.ipc                               0.852357                       # IPC: instructions per cycle
system.cpu.itb.accesses                             0                       # DTB accesses
system.cpu.itb.align_faults                         0                       # Number of TLB faults due to alignment restrictions
system.cpu.itb.domain_faults                        0                       # Number of TLB faults due to domain restrictions
system.cpu.itb.flush_entries                        0                       # Number of entries that have been flushed from TLB
system.cpu.itb.flush_tlb                            0                       # Number of times complete TLB was flushed
system.cpu.itb.flush_tlb_asid                       0                       # Number of times TLB was flushed by ASID
system.cpu.itb.flush_tlb_mva                        0                       # Number of times TLB was flushed by MVA
system.cpu.itb.flush_tlb_mva_asid                   0                       # Number of times TLB was flushed by MVA & ASID
system.cpu.itb.hits                                 0                       # DTB hits
system.cpu.itb.inst_accesses                        0                       # ITB inst accesses
system.cpu.itb.inst_hits                            0                       # ITB inst hits
system.cpu.itb.inst_misses                          0                       # ITB inst misses
system.cpu.itb.misses                               0                       # DTB misses
system.cpu.itb.perms_faults                         0                       # Number of TLB faults due to permissions restrictions
system.cpu.itb.prefetch_faults                      0                       # Number of TLB faults due to prefetch
system.cpu.itb.read_accesses                        0                       # DTB read accesses
system.cpu.itb.read_hits                            0                       # DTB read hits
system.cpu.itb.read_misses                          0                       # DTB read misses
system.cpu.itb.stage2_mmu.stage2_tlb.accesses            0                       # DTB accesses
system.cpu.itb.stage2_mmu.stage2_tlb.align_faults            0                       # Number of TLB faults due to alignment restrictions
system.cpu.itb.stage2_mmu.stage2_tlb.domain_faults            0                       # Number of TLB faults due to domain restrictions
system.cpu.itb.stage2_mmu.stage2_tlb.flush_entries            0                       # Number of entries that have been flushed from TLB
system.cpu.itb.stage2_mmu.stage2_tlb.flush_tlb            0                       # Number of times complete TLB was flushed
system.cpu.itb.stage2_mmu.stage2_tlb.flush_tlb_asid            0                       # Number of times TLB was flushed by ASID
system.cpu.itb.stage2_mmu.stage2_tlb.flush_tlb_mva            0                       # Number of times TLB was flushed by MVA
system.cpu.itb.stage2_mmu.stage2_tlb.flush_tlb_mva_asid            0                       # Number of times TLB was flushed by MVA & ASID
system.cpu.itb.stage2_mmu.stage2_tlb.hits            0                       # DTB hits
system.cpu.itb.stage2_mmu.stage2_tlb.inst_accesses            0                       # ITB inst accesses
system.cpu.itb.stage2_mmu.stage2_tlb.inst_hits            0                       # ITB inst hits
system.cpu.itb.stage2_mmu.stage2_tlb.inst_misses            0                       # ITB inst misses
system.cpu.itb.stage2_mmu.stage2_tlb.misses            0                       # DTB misses
system.cpu.itb.stage2_mmu.stage2_tlb.perms_faults            0                       # Number of TLB faults due to permissions restrictions
system.cpu.itb.stage2_mmu.stage2_tlb.prefetch_faults            0                       # Number of TLB faults due to prefetch
system.cpu.itb.stage2_mmu.stage2_tlb.read_accesses            0                       # DTB read accesses
system.cpu.itb.stage2_mmu.stage2_tlb.read_hits            0                       # DTB read hits
system.cpu.itb.stage2_mmu.stage2_tlb.read_misses            0                       # DTB read misses
system.cpu.itb.stage2_mmu.stage2_tlb.walker.walkRequestOrigin_Requested::Data            0                       # Table walker requests started/completed, data/inst
system.cpu.itb.stage2_mmu.stage2_tlb.walker.walkRequestOrigin_Requested::Inst            0                       # Table walker requests started/completed, data/inst
system.cpu.itb.stage2_mmu.stage2_tlb.walker.walkRequestOrigin_Requested::total            0                       # Table walker requests started/completed, data/inst
system.cpu.itb.stage2_mmu.stage2_tlb.walker.walkRequestOrigin_Completed::Data            0                       # Table walker requests started/completed, data/inst
system.cpu.itb.stage2_mmu.stage2_tlb.walker.walkRequestOrigin_Completed::Inst            0                       # Table walker requests started/completed, data/inst
system.cpu.itb.stage2_mmu.stage2_tlb.walker.walkRequestOrigin_Completed::total            0                       # Table walker requests started/completed, data/inst
system.cpu.itb.stage2_mmu.stage2_tlb.walker.walkRequestOrigin::total            0                       # Table walker requests started/completed, data/inst
system.cpu.itb.stage2_mmu.stage2_tlb.walker.walks            0                       # Table walker walks requested
system.cpu.itb.stage2_mmu.stage2_tlb.write_accesses            0                       # DTB write accesses
system.cpu.itb.stage2_mmu.stage2_tlb.write_hits            0                       # DTB write hits
system.cpu.itb.stage2_mmu.stage2_tlb.write_misses            0                       # DTB write misses
system.cpu.itb.walker.walkRequestOrigin_Requested::Data            0                       # Table walker requests started/completed, data/inst
system.cpu.itb.walker.walkRequestOrigin_Requested::Inst            0                       # Table walker requests started/completed, data/inst
system.cpu.itb.walker.walkRequestOrigin_Requested::total            0                       # Table walker requests started/completed, data/inst
system.cpu.itb.walker.walkRequestOrigin_Completed::Data            0                       # Table walker requests started/completed, data/inst
system.cpu.itb.walker.walkRequestOrigin_Completed::Inst            0                       # Table walker requests started/completed, data/inst
system.cpu.itb.walker.walkRequestOrigin_Completed::total            0                       # Table walker requests started/completed, data/inst
system.cpu.itb.walker.walkRequestOrigin::total            0                       # Table walker requests started/completed, data/inst
system.cpu.itb.walker.walks                         0                       # Table walker walks requested
system.cpu.itb.write_accesses                       0                       # DTB write accesses
system.cpu.itb.write_hits                           0                       # DTB write hits
system.cpu.itb.write_misses                         0                       # DTB write misses
system.cpu.numCycles                        117321707                       # number of cpu cycles simulated
system.cpu.numFetchSuspends                         0                       # Number of times Execute suspended instruction fetching
system.cpu.numWorkItemsCompleted                    0                       # number of work items this cpu completed
system.cpu.numWorkItemsStarted                      0                       # number of work items this cpu started
system.cpu.op_class_0::No_OpClass                   0      0.00%      0.00% # Class of committed instruction
system.cpu.op_class_0::IntAlu                72955303     66.67%     66.67% # Class of committed instruction
system.cpu.op_class_0::IntMult                 568365      0.52%     67.19% # Class of committed instruction
system.cpu.op_class_0::IntDiv                       0      0.00%     67.19% # Class of committed instruction
system.cpu.op_class_0::FloatAdd                     0      0.00%     67.19% # Class of committed instruction
system.cpu.op_class_0::FloatCmp                     0      0.00%     67.19% # Class of committed instruction
system.cpu.op_class_0::FloatCvt                     0      0.00%     67.19% # Class of committed instruction
system.cpu.op_class_0::FloatMult                    0      0.00%     67.19% # Class of committed instruction
system.cpu.op_class_0::FloatMultAcc                 0      0.00%     67.19% # Class of committed instruction
system.cpu.op_class_0::FloatDiv                     0      0.00%     67.19% # Class of committed instruction
system.cpu.op_class_0::FloatMisc                    0      0.00%     67.19% # Class of committed instruction
system.cpu.op_class_0::FloatSqrt                    0      0.00%     67.19% # Class of committed instruction
system.cpu.op_class_0::SimdAdd                 241252      0.22%     67.41% # Class of committed instruction
system.cpu.op_class_0::SimdAddAcc                   0      0.00%     67.41% # Class of committed instruction
system.cpu.op_class_0::SimdAlu                 154720      0.14%     67.55% # Class of committed instruction
system.cpu.op_class_0::SimdCmp                 120626      0.11%     67.66% # Class of committed instruction
system.cpu.op_class_0::SimdCvt                      0      0.00%     67.66% # Class of committed instruction
system.cpu.op_class_0::SimdMisc                 44544      0.04%     67.70% # Class of committed instruction
system.cpu.op_class_0::SimdMult                     0      0.00%     67.70% # Class of committed instruction
system.cpu.op_class_0::SimdMultAcc                  0      0.00%     67.70% # Class of committed instruction
system.cpu.op_class_0::SimdShift                    0      0.00%     67.70% # Class of committed instruction
system.cpu.op_class_0::SimdShiftAcc                 0      0.00%     67.70% # Class of committed instruction
system.cpu.op_class_0::SimdDiv                      0      0.00%     67.70% # Class of committed instruction
system.cpu.op_class_0::SimdSqrt                     0      0.00%     67.70% # Class of committed instruction
system.cpu.op_class_0::SimdFloatAdd                 0      0.00%     67.70% # Class of committed instruction
system.cpu.op_class_0::SimdFloatAlu                 0      0.00%     67.70% # Class of committed instruction
system.cpu.op_class_0::SimdFloatCmp                 0      0.00%     67.70% # Class of committed instruction
system.cpu.op_class_0::SimdFloatCvt                 0      0.00%     67.70% # Class of committed instruction
system.cpu.op_class_0::SimdFloatDiv                 0      0.00%     67.70% # Class of committed instruction
system.cpu.op_class_0::SimdFloatMisc           166465      0.15%     67.85% # Class of committed instruction
system.cpu.op_class_0::SimdFloatMult                0      0.00%     67.85% # Class of committed instruction
system.cpu.op_class_0::SimdFloatMultAcc             0      0.00%     67.85% # Class of committed instruction
system.cpu.op_class_0::SimdFloatSqrt                0      0.00%     67.85% # Class of committed instruction
system.cpu.op_class_0::SimdReduceAdd                0      0.00%     67.85% # Class of committed instruction
system.cpu.op_class_0::SimdReduceAlu                0      0.00%     67.85% # Class of committed instruction
system.cpu.op_class_0::SimdReduceCmp                0      0.00%     67.85% # Class of committed instruction
system.cpu.op_class_0::SimdFloatReduceAdd            0      0.00%     67.85% # Class of committed instruction
system.cpu.op_class_0::SimdFloatReduceCmp            0      0.00%     67.85% # Class of committed instruction
system.cpu.op_class_0::SimdAes                      0      0.00%     67.85% # Class of committed instruction
system.cpu.op_class_0::SimdAesMix                   0      0.00%     67.85% # Class of committed instruction
system.cpu.op_class_0::SimdSha1Hash                 0      0.00%     67.85% # Class of committed instruction
system.cpu.op_class_0::SimdSha1Hash2                0      0.00%     67.85% # Class of committed instruction
system.cpu.op_class_0::SimdSha256Hash               0      0.00%     67.85% # Class of committed instruction
system.cpu.op_class_0::SimdSha256Hash2              0      0.00%     67.85% # Class of committed instruction
system.cpu.op_class_0::SimdShaSigma2                0      0.00%     67.85% # Class of committed instruction
system.cpu.op_class_0::SimdShaSigma3                0      0.00%     67.85% # Class of committed instruction
system.cpu.op_class_0::SimdPredAlu                  0      0.00%     67.85% # Class of committed instruction
system.cpu.op_class_0::MemRead               20646465     18.87%     86.72% # Class of committed instruction
system.cpu.op_class_0::MemWrite              14534197     13.28%    100.00% # Class of committed instruction
system.cpu.op_class_0::FloatMemRead                 0      0.00%    100.00% # Class of committed instruction
system.cpu.op_class_0::FloatMemWrite                0      0.00%    100.00% # Class of committed instruction
system.cpu.op_class_0::IprAccess                    0      0.00%    100.00% # Class of committed instruction
system.cpu.op_class_0::InstPrefetch                 0      0.00%    100.00% # Class of committed instruction
system.cpu.op_class_0::total                109431937                       # Class of committed instruction
system.cpu.tickCycles                       111335561                       # Number of cycles that the object actually ticked
system.cpu.workload.numSyscalls                    86                       # Number of system calls
system.membus.snoop_filter.hit_multi_requests            0                       # Number of requests hitting in the snoop filter with multiple (>1) holders of the requested data.
system.membus.snoop_filter.hit_multi_snoops            0                       # Number of snoops hitting in the snoop filter with multiple (>1) holders of the requested data.
system.membus.snoop_filter.hit_single_requests        26225                       # Number of requests hitting in the snoop filter with a single holder of the requested data.
system.membus.snoop_filter.hit_single_snoops            0                       # Number of snoops hitting in the snoop filter with a single holder of the requested data.
system.membus.snoop_filter.tot_requests         69269                       # Total number of requests made to the snoop filter.
system.membus.snoop_filter.tot_snoops               0                       # Total number of snoops made to the snoop filter.
system.tol2bus.snoop_filter.hit_multi_requests         2056                       # Number of requests hitting in the snoop filter with multiple (>1) holders of the requested data.
system.tol2bus.snoop_filter.hit_multi_snoops            0                       # Number of snoops hitting in the snoop filter with multiple (>1) holders of the requested data.
system.tol2bus.snoop_filter.hit_single_requests       216535                       # Number of requests hitting in the snoop filter with a single holder of the requested data.
system.tol2bus.snoop_filter.hit_single_snoops          464                       # Number of snoops hitting in the snoop filter with a single holder of the requested data.
system.tol2bus.snoop_filter.tot_requests       434018                       # Total number of requests made to the snoop filter.
system.tol2bus.snoop_filter.tot_snoops            464                       # Total number of snoops made to the snoop filter.
system.membus.pwrStateResidencyTicks::UNDEFINED 117321707000                       # Cumulative time (in ticks) in various power states
system.membus.trans_dist::ReadResp               4232                       # Transaction distribution
system.membus.trans_dist::WritebackDirty        26077                       # Transaction distribution
system.membus.trans_dist::CleanEvict              148                       # Transaction distribution
system.membus.trans_dist::ReadExReq             38812                       # Transaction distribution
system.membus.trans_dist::ReadExResp            38812                       # Transaction distribution
system.membus.trans_dist::ReadSharedReq          4232                       # Transaction distribution
system.membus.pkt_count_system.l2.mem_side::system.mem_ctrls.port       112313                       # Packet count per connected master and slave (bytes)
system.membus.pkt_count::total                 112313                       # Packet count per connected master and slave (bytes)
system.membus.pkt_size_system.l2.mem_side::system.mem_ctrls.port      4423744                       # Cumulative packet size per connected master and slave (bytes)
system.membus.pkt_size::total                 4423744                       # Cumulative packet size per connected master and slave (bytes)
system.membus.snoops                                0                       # Total snoops (count)
system.membus.snoopTraffic                          0                       # Total snoop traffic (bytes)
system.membus.snoop_fanout::samples             43044                       # Request fanout histogram
system.membus.snoop_fanout::mean                    0                       # Request fanout histogram
system.membus.snoop_fanout::stdev                   0                       # Request fanout histogram
system.membus.snoop_fanout::underflows              0      0.00%      0.00% # Request fanout histogram
system.membus.snoop_fanout::0                   43044    100.00%    100.00% # Request fanout histogram
system.membus.snoop_fanout::1                       0      0.00%    100.00% # Request fanout histogram
system.membus.snoop_fanout::overflows               0      0.00%    100.00% # Request fanout histogram
system.membus.snoop_fanout::min_value               0                       # Request fanout histogram
system.membus.snoop_fanout::max_value               0                       # Request fanout histogram
system.membus.snoop_fanout::total               43044                       # Request fanout histogram
system.membus.respLayer1.occupancy          232257750                       # Layer occupancy (ticks)
system.membus.respLayer1.utilization              0.2                       # Layer utilization (%)
system.membus.reqLayer0.occupancy           173577000                       # Layer occupancy (ticks)
system.membus.reqLayer0.utilization               0.1                       # Layer utilization (%)
system.tol2bus.pwrStateResidencyTicks::UNDEFINED 117321707000                       # Cumulative time (in ticks) in various power states
system.tol2bus.trans_dist::ReadResp            169917                       # Transaction distribution
system.tol2bus.trans_dist::WritebackDirty       143303                       # Transaction distribution
system.tol2bus.trans_dist::WritebackClean          758                       # Transaction distribution
system.tol2bus.trans_dist::CleanEvict           99149                       # Transaction distribution
system.tol2bus.trans_dist::ReadExReq            47570                       # Transaction distribution
system.tol2bus.trans_dist::ReadExResp           47570                       # Transaction distribution
system.tol2bus.trans_dist::ReadCleanReq          1202                       # Transaction distribution
system.tol2bus.trans_dist::ReadSharedReq       168715                       # Transaction distribution
system.tol2bus.pkt_count_system.cpu.icache.mem_side::system.l2.cpu_side         3162                       # Packet count per connected master and slave (bytes)
system.tol2bus.pkt_count_system.cpu.dcache.mem_side::system.l2.cpu_side       648343                       # Packet count per connected master and slave (bytes)
system.tol2bus.pkt_count::total                651505                       # Packet count per connected master and slave (bytes)
system.tol2bus.pkt_size_system.cpu.icache.mem_side::system.l2.cpu_side       125440                       # Cumulative packet size per connected master and slave (bytes)
system.tol2bus.pkt_size_system.cpu.dcache.mem_side::system.l2.cpu_side     21344704                       # Cumulative packet size per connected master and slave (bytes)
system.tol2bus.pkt_size::total               21470144                       # Cumulative packet size per connected master and slave (bytes)
system.tol2bus.snoops                           26679                       # Total snoops (count)
system.tol2bus.snoopTraffic                   1668928                       # Total snoop traffic (bytes)
system.tol2bus.snoop_fanout::samples           244166                       # Request fanout histogram
system.tol2bus.snoop_fanout::mean            0.010337                       # Request fanout histogram
system.tol2bus.snoop_fanout::stdev           0.101146                       # Request fanout histogram
system.tol2bus.snoop_fanout::underflows             0      0.00%      0.00% # Request fanout histogram
system.tol2bus.snoop_fanout::0                 241642     98.97%     98.97% # Request fanout histogram
system.tol2bus.snoop_fanout::1                   2524      1.03%    100.00% # Request fanout histogram
system.tol2bus.snoop_fanout::2                      0      0.00%    100.00% # Request fanout histogram
system.tol2bus.snoop_fanout::overflows              0      0.00%    100.00% # Request fanout histogram
system.tol2bus.snoop_fanout::min_value              0                       # Request fanout histogram
system.tol2bus.snoop_fanout::max_value              1                       # Request fanout histogram
system.tol2bus.snoop_fanout::total             244166                       # Request fanout histogram
system.tol2bus.reqLayer0.occupancy          669986000                       # Layer occupancy (ticks)
system.tol2bus.reqLayer0.utilization              0.6                       # Layer utilization (%)
system.tol2bus.respLayer1.occupancy         648859995                       # Layer occupancy (ticks)
system.tol2bus.respLayer1.utilization             0.6                       # Layer utilization (%)
system.tol2bus.respLayer0.occupancy           3606999                       # Layer occupancy (ticks)
system.tol2bus.respLayer0.utilization             0.0                       # Layer utilization (%)
system.voltage_domain.voltage                       1                       # Voltage in Volts
system.clk_domain.clock                          1000                       # Clock period in ticks
system.l2.pwrStateResidencyTicks::UNDEFINED 117321707000                       # Cumulative time (in ticks) in various power states
system.l2.demand_hits::.cpu.inst                  686                       # number of demand (read+write) hits
system.l2.demand_hits::.cpu.data               173751                       # number of demand (read+write) hits
system.l2.demand_hits::total                   174437                       # number of demand (read+write) hits
system.l2.overall_hits::.cpu.inst                 686                       # number of overall hits
system.l2.overall_hits::.cpu.data              173751                       # number of overall hits
system.l2.overall_hits::total                  174437                       # number of overall hits
system.l2.demand_misses::.cpu.inst                516                       # number of demand (read+write) misses
system.l2.demand_misses::.cpu.data              42534                       # number of demand (read+write) misses
system.l2.demand_misses::total                  43050                       # number of demand (read+write) misses
system.l2.overall_misses::.cpu.inst               516                       # number of overall misses
system.l2.overall_misses::.cpu.data             42534                       # number of overall misses
system.l2.overall_misses::total                 43050                       # number of overall misses
system.l2.demand_miss_latency::.cpu.inst     50125000                       # number of demand (read+write) miss cycles
system.l2.demand_miss_latency::.cpu.data   4402721000                       # number of demand (read+write) miss cycles
system.l2.demand_miss_latency::total       4452846000                       # number of demand (read+write) miss cycles
system.l2.overall_miss_latency::.cpu.inst     50125000                       # number of overall miss cycles
system.l2.overall_miss_latency::.cpu.data   4402721000                       # number of overall miss cycles
system.l2.overall_miss_latency::total      4452846000                       # number of overall miss cycles
system.l2.demand_accesses::.cpu.inst             1202                       # number of demand (read+write) accesses
system.l2.demand_accesses::.cpu.data           216285                       # number of demand (read+write) accesses
system.l2.demand_accesses::total               217487                       # number of demand (read+write) accesses
system.l2.overall_accesses::.cpu.inst            1202                       # number of overall (read+write) accesses
system.l2.overall_accesses::.cpu.data          216285                       # number of overall (read+write) accesses
system.l2.overall_accesses::total              217487                       # number of overall (read+write) accesses
system.l2.demand_miss_rate::.cpu.inst        0.429285                       # miss rate for demand accesses
system.l2.demand_miss_rate::.cpu.data        0.196657                       # miss rate for demand accesses
system.l2.demand_miss_rate::total            0.197943                       # miss rate for demand accesses
system.l2.overall_miss_rate::.cpu.inst       0.429285                       # miss rate for overall accesses
system.l2.overall_miss_rate::.cpu.data       0.196657                       # miss rate for overall accesses
system.l2.overall_miss_rate::total           0.197943                       # miss rate for overall accesses
system.l2.demand_avg_miss_latency::.cpu.inst 97141.472868                       # average overall miss latency
system.l2.demand_avg_miss_latency::.cpu.data 103510.626793                       # average overall miss latency
system.l2.demand_avg_miss_latency::total 103434.285714                       # average overall miss latency
system.l2.overall_avg_miss_latency::.cpu.inst 97141.472868                       # average overall miss latency
system.l2.overall_avg_miss_latency::.cpu.data 103510.626793                       # average overall miss latency
system.l2.overall_avg_miss_latency::total 103434.285714                       # average overall miss latency
system.l2.blocked_cycles::no_mshrs                  0                       # number of cycles access was blocked
system.l2.blocked_cycles::no_targets                0                       # number of cycles access was blocked
system.l2.blocked::no_mshrs                         0                       # number of cycles access was blocked
system.l2.blocked::no_targets                       0                       # number of cycles access was blocked
system.l2.avg_blocked_cycles::no_mshrs            nan                       # average number of cycles each access was blocked
system.l2.avg_blocked_cycles::no_targets          nan                       # average number of cycles each access was blocked
system.l2.writebacks::.writebacks               26077                       # number of writebacks
system.l2.writebacks::total                     26077                       # number of writebacks
system.l2.demand_mshr_hits::.cpu.inst               1                       # number of demand (read+write) MSHR hits
system.l2.demand_mshr_hits::.cpu.data               5                       # number of demand (read+write) MSHR hits
system.l2.demand_mshr_hits::total                   6                       # number of demand (read+write) MSHR hits
system.l2.overall_mshr_hits::.cpu.inst              1                       # number of overall MSHR hits
system.l2.overall_mshr_hits::.cpu.data              5                       # number of overall MSHR hits
system.l2.overall_mshr_hits::total                  6                       # number of overall MSHR hits
system.l2.demand_mshr_misses::.cpu.inst           515                       # number of demand (read+write) MSHR misses
system.l2.demand_mshr_misses::.cpu.data         42529                       # number of demand (read+write) MSHR misses
system.l2.demand_mshr_misses::total             43044                       # number of demand (read+write) MSHR misses
system.l2.overall_mshr_misses::.cpu.inst          515                       # number of overall MSHR misses
system.l2.overall_mshr_misses::.cpu.data        42529                       # number of overall MSHR misses
system.l2.overall_mshr_misses::total            43044                       # number of overall MSHR misses
system.l2.demand_mshr_miss_latency::.cpu.inst     39745000                       # number of demand (read+write) MSHR miss cycles
system.l2.demand_mshr_miss_latency::.cpu.data   3551733000                       # number of demand (read+write) MSHR miss cycles
system.l2.demand_mshr_miss_latency::total   3591478000                       # number of demand (read+write) MSHR miss cycles
system.l2.overall_mshr_miss_latency::.cpu.inst     39745000                       # number of overall MSHR miss cycles
system.l2.overall_mshr_miss_latency::.cpu.data   3551733000                       # number of overall MSHR miss cycles
system.l2.overall_mshr_miss_latency::total   3591478000                       # number of overall MSHR miss cycles
system.l2.demand_mshr_miss_rate::.cpu.inst     0.428453                       # mshr miss rate for demand accesses
system.l2.demand_mshr_miss_rate::.cpu.data     0.196634                       # mshr miss rate for demand accesses
system.l2.demand_mshr_miss_rate::total       0.197915                       # mshr miss rate for demand accesses
system.l2.overall_mshr_miss_rate::.cpu.inst     0.428453                       # mshr miss rate for overall accesses
system.l2.overall_mshr_miss_rate::.cpu.data     0.196634                       # mshr miss rate for overall accesses
system.l2.overall_mshr_miss_rate::total      0.197915                       # mshr miss rate for overall accesses
system.l2.demand_avg_mshr_miss_latency::.cpu.inst 77174.757282                       # average overall mshr miss latency
system.l2.demand_avg_mshr_miss_latency::.cpu.data 83513.202756                       # average overall mshr miss latency
system.l2.demand_avg_mshr_miss_latency::total 83437.366416                       # average overall mshr miss latency
system.l2.overall_avg_mshr_miss_latency::.cpu.inst 77174.757282                       # average overall mshr miss latency
system.l2.overall_avg_mshr_miss_latency::.cpu.data 83513.202756                       # average overall mshr miss latency
system.l2.overall_avg_mshr_miss_latency::total 83437.366416                       # average overall mshr miss latency
system.l2.replacements                          26679                       # number of replacements
system.l2.WritebackDirty_hits::.writebacks       117226                       # number of WritebackDirty hits
system.l2.WritebackDirty_hits::total           117226                       # number of WritebackDirty hits
system.l2.WritebackDirty_accesses::.writebacks       117226                       # number of WritebackDirty accesses(hits+misses)
system.l2.WritebackDirty_accesses::total       117226                       # number of WritebackDirty accesses(hits+misses)
system.l2.WritebackClean_hits::.writebacks          755                       # number of WritebackClean hits
system.l2.WritebackClean_hits::total              755                       # number of WritebackClean hits
system.l2.WritebackClean_accesses::.writebacks          755                       # number of WritebackClean accesses(hits+misses)
system.l2.WritebackClean_accesses::total          755                       # number of WritebackClean accesses(hits+misses)
system.l2.CleanEvict_mshr_misses::.writebacks           10                       # number of CleanEvict MSHR misses
system.l2.CleanEvict_mshr_misses::total            10                       # number of CleanEvict MSHR misses
system.l2.CleanEvict_mshr_miss_rate::.writebacks          inf                       # mshr miss rate for CleanEvict accesses
system.l2.CleanEvict_mshr_miss_rate::total          inf                       # mshr miss rate for CleanEvict accesses
system.l2.ReadExReq_hits::.cpu.data              8758                       # number of ReadExReq hits
system.l2.ReadExReq_hits::total                  8758                       # number of ReadExReq hits
system.l2.ReadExReq_misses::.cpu.data           38812                       # number of ReadExReq misses
system.l2.ReadExReq_misses::total               38812                       # number of ReadExReq misses
system.l2.ReadExReq_miss_latency::.cpu.data   3997984000                       # number of ReadExReq miss cycles
system.l2.ReadExReq_miss_latency::total    3997984000                       # number of ReadExReq miss cycles
system.l2.ReadExReq_accesses::.cpu.data         47570                       # number of ReadExReq accesses(hits+misses)
system.l2.ReadExReq_accesses::total             47570                       # number of ReadExReq accesses(hits+misses)
system.l2.ReadExReq_miss_rate::.cpu.data     0.815892                       # miss rate for ReadExReq accesses
system.l2.ReadExReq_miss_rate::total         0.815892                       # miss rate for ReadExReq accesses
system.l2.ReadExReq_avg_miss_latency::.cpu.data 103008.966299                       # average ReadExReq miss latency
system.l2.ReadExReq_avg_miss_latency::total 103008.966299                       # average ReadExReq miss latency
system.l2.ReadExReq_mshr_misses::.cpu.data        38812                       # number of ReadExReq MSHR misses
system.l2.ReadExReq_mshr_misses::total          38812                       # number of ReadExReq MSHR misses
system.l2.ReadExReq_mshr_miss_latency::.cpu.data   3221744000                       # number of ReadExReq MSHR miss cycles
system.l2.ReadExReq_mshr_miss_latency::total   3221744000                       # number of ReadExReq MSHR miss cycles
system.l2.ReadExReq_mshr_miss_rate::.cpu.data     0.815892                       # mshr miss rate for ReadExReq accesses
system.l2.ReadExReq_mshr_miss_rate::total     0.815892                       # mshr miss rate for ReadExReq accesses
system.l2.ReadExReq_avg_mshr_miss_latency::.cpu.data 83008.966299                       # average ReadExReq mshr miss latency
system.l2.ReadExReq_avg_mshr_miss_latency::total 83008.966299                       # average ReadExReq mshr miss latency
system.l2.ReadCleanReq_hits::.cpu.inst            686                       # number of ReadCleanReq hits
system.l2.ReadCleanReq_hits::total                686                       # number of ReadCleanReq hits
system.l2.ReadCleanReq_misses::.cpu.inst          516                       # number of ReadCleanReq misses
system.l2.ReadCleanReq_misses::total              516                       # number of ReadCleanReq misses
system.l2.ReadCleanReq_miss_latency::.cpu.inst     50125000                       # number of ReadCleanReq miss cycles
system.l2.ReadCleanReq_miss_latency::total     50125000                       # number of ReadCleanReq miss cycles
system.l2.ReadCleanReq_accesses::.cpu.inst         1202                       # number of ReadCleanReq accesses(hits+misses)
system.l2.ReadCleanReq_accesses::total           1202                       # number of ReadCleanReq accesses(hits+misses)
system.l2.ReadCleanReq_miss_rate::.cpu.inst     0.429285                       # miss rate for ReadCleanReq accesses
system.l2.ReadCleanReq_miss_rate::total      0.429285                       # miss rate for ReadCleanReq accesses
system.l2.ReadCleanReq_avg_miss_latency::.cpu.inst 97141.472868                       # average ReadCleanReq miss latency
system.l2.ReadCleanReq_avg_miss_latency::total 97141.472868                       # average ReadCleanReq miss latency
system.l2.ReadCleanReq_mshr_hits::.cpu.inst            1                       # number of ReadCleanReq MSHR hits
system.l2.ReadCleanReq_mshr_hits::total             1                       # number of ReadCleanReq MSHR hits
system.l2.ReadCleanReq_mshr_misses::.cpu.inst          515                       # number of ReadCleanReq MSHR misses
system.l2.ReadCleanReq_mshr_misses::total          515                       # number of ReadCleanReq MSHR misses
system.l2.ReadCleanReq_mshr_miss_latency::.cpu.inst     39745000                       # number of ReadCleanReq MSHR miss cycles
system.l2.ReadCleanReq_mshr_miss_latency::total     39745000                       # number of ReadCleanReq MSHR miss cycles
system.l2.ReadCleanReq_mshr_miss_rate::.cpu.inst     0.428453                       # mshr miss rate for ReadCleanReq accesses
system.l2.ReadCleanReq_mshr_miss_rate::total     0.428453                       # mshr miss rate for ReadCleanReq accesses
system.l2.ReadCleanReq_avg_mshr_miss_latency::.cpu.inst 77174.757282                       # average ReadCleanReq mshr miss latency
system.l2.ReadCleanReq_avg_mshr_miss_latency::total 77174.757282                       # average ReadCleanReq mshr miss latency
system.l2.ReadSharedReq_hits::.cpu.data        164993                       # number of ReadSharedReq hits
system.l2.ReadSharedReq_hits::total            164993                       # number of ReadSharedReq hits
system.l2.ReadSharedReq_misses::.cpu.data         3722                       # number of ReadSharedReq misses
system.l2.ReadSharedReq_misses::total            3722                       # number of ReadSharedReq misses
system.l2.ReadSharedReq_miss_latency::.cpu.data    404737000                       # number of ReadSharedReq miss cycles
system.l2.ReadSharedReq_miss_latency::total    404737000                       # number of ReadSharedReq miss cycles
system.l2.ReadSharedReq_accesses::.cpu.data       168715                       # number of ReadSharedReq accesses(hits+misses)
system.l2.ReadSharedReq_accesses::total        168715                       # number of ReadSharedReq accesses(hits+misses)
system.l2.ReadSharedReq_miss_rate::.cpu.data     0.022061                       # miss rate for ReadSharedReq accesses
system.l2.ReadSharedReq_miss_rate::total     0.022061                       # miss rate for ReadSharedReq accesses
system.l2.ReadSharedReq_avg_miss_latency::.cpu.data 108741.805481                       # average ReadSharedReq miss latency
system.l2.ReadSharedReq_avg_miss_latency::total 108741.805481                       # average ReadSharedReq miss latency
system.l2.ReadSharedReq_mshr_hits::.cpu.data            5                       # number of ReadSharedReq MSHR hits
system.l2.ReadSharedReq_mshr_hits::total            5                       # number of ReadSharedReq MSHR hits
system.l2.ReadSharedReq_mshr_misses::.cpu.data         3717                       # number of ReadSharedReq MSHR misses
system.l2.ReadSharedReq_mshr_misses::total         3717                       # number of ReadSharedReq MSHR misses
system.l2.ReadSharedReq_mshr_miss_latency::.cpu.data    329989000                       # number of ReadSharedReq MSHR miss cycles
system.l2.ReadSharedReq_mshr_miss_latency::total    329989000                       # number of ReadSharedReq MSHR miss cycles
system.l2.ReadSharedReq_mshr_miss_rate::.cpu.data     0.022031                       # mshr miss rate for ReadSharedReq accesses
system.l2.ReadSharedReq_mshr_miss_rate::total     0.022031                       # mshr miss rate for ReadSharedReq accesses
system.l2.ReadSharedReq_avg_mshr_miss_latency::.cpu.data 88778.315846                       # average ReadSharedReq mshr miss latency
system.l2.ReadSharedReq_avg_mshr_miss_latency::total 88778.315846                       # average ReadSharedReq mshr miss latency
system.l2.tags.pwrStateResidencyTicks::UNDEFINED 117321707000                       # Cumulative time (in ticks) in various power states
system.l2.tags.tagsinuse                 15501.933039                       # Cycle average of tags in use
system.l2.tags.total_refs                      431946                       # Total number of references to valid blocks.
system.l2.tags.sampled_refs                     43063                       # Sample count of references to valid blocks.
system.l2.tags.avg_refs                     10.030560                       # Average number of references to valid blocks.
system.l2.tags.warmup_cycle                     87000                       # Cycle when the warmup percentage was hit.
system.l2.tags.occ_blocks::.writebacks       7.759775                       # Average occupied blocks per requestor
system.l2.tags.occ_blocks::.cpu.inst        37.591233                       # Average occupied blocks per requestor
system.l2.tags.occ_blocks::.cpu.data     15456.582030                       # Average occupied blocks per requestor
system.l2.tags.occ_percent::.writebacks      0.000474                       # Average percentage of cache occupancy
system.l2.tags.occ_percent::.cpu.inst        0.002294                       # Average percentage of cache occupancy
system.l2.tags.occ_percent::.cpu.data        0.943395                       # Average percentage of cache occupancy
system.l2.tags.occ_percent::total            0.946163                       # Average percentage of cache occupancy
system.l2.tags.occ_task_id_blocks::1024         16384                       # Occupied blocks per task id
system.l2.tags.age_task_id_blocks_1024::0            2                       # Occupied blocks per task id
system.l2.tags.age_task_id_blocks_1024::1           17                       # Occupied blocks per task id
system.l2.tags.age_task_id_blocks_1024::2          222                       # Occupied blocks per task id
system.l2.tags.age_task_id_blocks_1024::3         2400                       # Occupied blocks per task id
system.l2.tags.age_task_id_blocks_1024::4        13743                       # Occupied blocks per task id
system.l2.tags.occ_task_id_percent::1024            1                       # Percentage of cache occupancy per task id
system.l2.tags.tag_accesses                    906987                       # Number of tag accesses
system.l2.tags.data_accesses                   906987                       # Number of data accesses
system.cpu_voltage_domain.voltage                   1                       # Voltage in Volts
system.mem_ctrls.pwrStateResidencyTicks::UNDEFINED 117321707000                       # Cumulative time (in ticks) in various power states
system.mem_ctrls.bytes_read::.cpu.inst          32960                       # Number of bytes read from this memory
system.mem_ctrls.bytes_read::.cpu.data        2721856                       # Number of bytes read from this memory
system.mem_ctrls.bytes_read::total            2754816                       # Number of bytes read from this memory
system.mem_ctrls.bytes_inst_read::.cpu.inst        32960                       # Number of instructions bytes read from this memory
system.mem_ctrls.bytes_inst_read::total         32960                       # Number of instructions bytes read from this memory
system.mem_ctrls.bytes_written::.writebacks      1668928                       # Number of bytes written to this memory
system.mem_ctrls.bytes_written::total         1668928                       # Number of bytes written to this memory
system.mem_ctrls.num_reads::.cpu.inst             515                       # Number of read requests responded to by this memory
system.mem_ctrls.num_reads::.cpu.data           42529                       # Number of read requests responded to by this memory
system.mem_ctrls.num_reads::total               43044                       # Number of read requests responded to by this memory
system.mem_ctrls.num_writes::.writebacks        26077                       # Number of write requests responded to by this memory
system.mem_ctrls.num_writes::total              26077                       # Number of write requests responded to by this memory
system.mem_ctrls.bw_read::.cpu.inst            280937                       # Total read bandwidth from this memory (bytes/s)
system.mem_ctrls.bw_read::.cpu.data          23199935                       # Total read bandwidth from this memory (bytes/s)
system.mem_ctrls.bw_read::total              23480872                       # Total read bandwidth from this memory (bytes/s)
system.mem_ctrls.bw_inst_read::.cpu.inst       280937                       # Instruction read bandwidth from this memory (bytes/s)
system.mem_ctrls.bw_inst_read::total           280937                       # Instruction read bandwidth from this memory (bytes/s)
system.mem_ctrls.bw_write::.writebacks       14225228                       # Write bandwidth from this memory (bytes/s)
system.mem_ctrls.bw_write::total             14225228                       # Write bandwidth from this memory (bytes/s)
system.mem_ctrls.bw_total::.writebacks       14225228                       # Total bandwidth to/from this memory (bytes/s)
system.mem_ctrls.bw_total::.cpu.inst           280937                       # Total bandwidth to/from this memory (bytes/s)
system.mem_ctrls.bw_total::.cpu.data         23199935                       # Total bandwidth to/from this memory (bytes/s)
system.mem_ctrls.bw_total::total             37706100                       # Total bandwidth to/from this memory (bytes/s)
system.mem_ctrls.avgPriority_.writebacks::samples     26077.00                       # Average QoS priority value for accepted requests
system.mem_ctrls.avgPriority_.cpu.inst::samples       515.00                       # Average QoS priority value for accepted requests
system.mem_ctrls.avgPriority_.cpu.data::samples     42523.00                       # Average QoS priority value for accepted requests
system.mem_ctrls.priorityMinLatency      0.000000018750                       # per QoS priority minimum request to response latency (s)
system.mem_ctrls.priorityMaxLatency      0.012687916500                       # per QoS priority maximum request to response latency (s)
system.mem_ctrls.numReadWriteTurnArounds         1446                       # Number of turnarounds from READ to WRITE
system.mem_ctrls.numWriteReadTurnArounds         1446                       # Number of turnarounds from WRITE to READ
system.mem_ctrls.numStayReadState              142093                       # Number of times bus staying in READ state
system.mem_ctrls.numStayWriteState              24643                       # Number of times bus staying in WRITE state
system.mem_ctrls.readReqs                       43044                       # Number of read requests accepted
system.mem_ctrls.writeReqs                      26077                       # Number of write requests accepted
system.mem_ctrls.readBursts                     43044                       # Number of DRAM read bursts, including those serviced by the write queue
system.mem_ctrls.writeBursts                    26077                       # Number of DRAM write bursts, including those merged in the write queue
system.mem_ctrls.servicedByWrQ                      6                       # Number of DRAM read bursts serviced by the write queue
system.mem_ctrls.mergedWrBursts                     0                       # Number of DRAM write bursts merged with an existing one
system.mem_ctrls.neitherReadNorWriteReqs            0                       # Number of requests that are neither read nor write
system.mem_ctrls.perBankRdBursts::0              2688                       # Per bank write bursts
system.mem_ctrls.perBankRdBursts::1              2551                       # Per bank write bursts
system.mem_ctrls.perBankRdBursts::2              2552                       # Per bank write bursts
system.mem_ctrls.perBankRdBursts::3              2824                       # Per bank write bursts
system.mem_ctrls.perBankRdBursts::4              2914                       # Per bank write bursts
system.mem_ctrls.perBankRdBursts::5              2645                       # Per bank write bursts
system.mem_ctrls.perBankRdBursts::6              2644                       # Per bank write bursts
system.mem_ctrls.perBankRdBursts::7              2668                       # Per bank write bursts
system.mem_ctrls.perBankRdBursts::8              2678                       # Per bank write bursts
system.mem_ctrls.perBankRdBursts::9              2678                       # Per bank write bursts
system.mem_ctrls.perBankRdBursts::10             2659                       # Per bank write bursts
system.mem_ctrls.perBankRdBursts::11             2703                       # Per bank write bursts
system.mem_ctrls.perBankRdBursts::12             2722                       # Per bank write bursts
system.mem_ctrls.perBankRdBursts::13             2676                       # Per bank write bursts
system.mem_ctrls.perBankRdBursts::14             2753                       # Per bank write bursts
system.mem_ctrls.perBankRdBursts::15             2683                       # Per bank write bursts
system.mem_ctrls.perBankWrBursts::0              1597                       # Per bank write bursts
system.mem_ctrls.perBankWrBursts::1              1498                       # Per bank write bursts
system.mem_ctrls.perBankWrBursts::2              1512                       # Per bank write bursts
system.mem_ctrls.perBankWrBursts::3              1720                       # Per bank write bursts
system.mem_ctrls.perBankWrBursts::4              1857                       # Per bank write bursts
system.mem_ctrls.perBankWrBursts::5              1621                       # Per bank write bursts
system.mem_ctrls.perBankWrBursts::6              1620                       # Per bank write bursts
system.mem_ctrls.perBankWrBursts::7              1617                       # Per bank write bursts
system.mem_ctrls.perBankWrBursts::8              1631                       # Per bank write bursts
system.mem_ctrls.perBankWrBursts::9              1598                       # Per bank write bursts
system.mem_ctrls.perBankWrBursts::10             1599                       # Per bank write bursts
system.mem_ctrls.perBankWrBursts::11             1618                       # Per bank write bursts
system.mem_ctrls.perBankWrBursts::12             1647                       # Per bank write bursts
system.mem_ctrls.perBankWrBursts::13             1631                       # Per bank write bursts
system.mem_ctrls.perBankWrBursts::14             1657                       # Per bank write bursts
system.mem_ctrls.perBankWrBursts::15             1626                       # Per bank write bursts
system.mem_ctrls.avgRdQLen                       1.03                       # Average read queue length when enqueuing
system.mem_ctrls.avgWrQLen                      23.00                       # Average write queue length when enqueuing
system.mem_ctrls.totQLat                    572279250                       # Total ticks spent queuing
system.mem_ctrls.totBusLat                  215190000                       # Total ticks spent in databus transfers
system.mem_ctrls.totMemAccLat              1379241750                       # Total ticks spent from burst creation until serviced by the DRAM
system.mem_ctrls.avgQLat                     13297.07                       # Average queueing delay per DRAM burst
system.mem_ctrls.avgBusLat                    5000.00                       # Average bus latency per DRAM burst
system.mem_ctrls.avgMemAccLat                32047.07                       # Average memory access latency per DRAM burst
system.mem_ctrls.numRdRetry                         0                       # Number of times read queue was full causing retry
system.mem_ctrls.numWrRetry                         0                       # Number of times write queue was full causing retry
system.mem_ctrls.readRowHits                    18906                       # Number of row buffer hits during reads
system.mem_ctrls.writeRowHits                   20686                       # Number of row buffer hits during writes
system.mem_ctrls.readRowHitRate                 43.93                       # Row buffer hit rate for reads
system.mem_ctrls.writeRowHitRate                79.33                       # Row buffer hit rate for writes
system.mem_ctrls.readPktSize::0                     0                       # Read request sizes (log2)
system.mem_ctrls.readPktSize::1                     0                       # Read request sizes (log2)
system.mem_ctrls.readPktSize::2                     0                       # Read request sizes (log2)
system.mem_ctrls.readPktSize::3                     0                       # Read request sizes (log2)
system.mem_ctrls.readPktSize::4                     0                       # Read request sizes (log2)
system.mem_ctrls.readPktSize::5                     0                       # Read request sizes (log2)
system.mem_ctrls.readPktSize::6                 43044                       # Read request sizes (log2)
system.mem_ctrls.writePktSize::0                    0                       # Write request sizes (log2)
system.mem_ctrls.writePktSize::1                    0                       # Write request sizes (log2)
system.mem_ctrls.writePktSize::2                    0                       # Write request sizes (log2)
system.mem_ctrls.writePktSize::3                    0                       # Write request sizes (log2)
system.mem_ctrls.writePktSize::4                    0                       # Write request sizes (log2)
system.mem_ctrls.writePktSize::5                    0                       # Write request sizes (log2)
system.mem_ctrls.writePktSize::6                26077                       # Write request sizes (log2)
system.mem_ctrls.rdQLenPdf::0                   42125                       # What read queue length does an incoming req see
system.mem_ctrls.rdQLenPdf::1                     907                       # What read queue length does an incoming req see
system.mem_ctrls.rdQLenPdf::2                       6                       # What read queue length does an incoming req see
system.mem_ctrls.rdQLenPdf::3                       0                       # What read queue length does an incoming req see
system.mem_ctrls.rdQLenPdf::4                       0                       # What read queue length does an incoming req see
system.mem_ctrls.rdQLenPdf::5                       0                       # What read queue length does an incoming req see
system.mem_ctrls.rdQLenPdf::6                       0                       # What read queue length does an incoming req see
system.mem_ctrls.rdQLenPdf::7                       0                       # What read queue length does an incoming req see
system.mem_ctrls.rdQLenPdf::8                       0                       # What read queue length does an incoming req see
system.mem_ctrls.rdQLenPdf::9                       0                       # What read queue length does an incoming req see
system.mem_ctrls.rdQLenPdf::10                      0                       # What read queue length does an incoming req see
system.mem_ctrls.rdQLenPdf::11                      0                       # What read queue length does an incoming req see
system.mem_ctrls.rdQLenPdf::12                      0                       # What read queue length does an incoming req see
system.mem_ctrls.rdQLenPdf::13                      0                       # What read queue length does an incoming req see
system.mem_ctrls.rdQLenPdf::14                      0                       # What read queue length does an incoming req see
system.mem_ctrls.rdQLenPdf::15                      0                       # What read queue length does an incoming req see
system.mem_ctrls.rdQLenPdf::16                      0                       # What read queue length does an incoming req see
system.mem_ctrls.rdQLenPdf::17                      0                       # What read queue length does an incoming req see
system.mem_ctrls.rdQLenPdf::18                      0                       # What read queue length does an incoming req see
system.mem_ctrls.rdQLenPdf::19                      0                       # What read queue length does an incoming req see
system.mem_ctrls.rdQLenPdf::20                      0                       # What read queue length does an incoming req see
system.mem_ctrls.rdQLenPdf::21                      0                       # What read queue length does an incoming req see
system.mem_ctrls.rdQLenPdf::22                      0                       # What read queue length does an incoming req see
system.mem_ctrls.rdQLenPdf::23                      0                       # What read queue length does an incoming req see
system.mem_ctrls.rdQLenPdf::24                      0                       # What read queue length does an incoming req see
system.mem_ctrls.rdQLenPdf::25                      0                       # What read queue length does an incoming req see
system.mem_ctrls.rdQLenPdf::26                      0                       # What read queue length does an incoming req see
system.mem_ctrls.rdQLenPdf::27                      0                       # What read queue length does an incoming req see
system.mem_ctrls.rdQLenPdf::28                      0                       # What read queue length does an incoming req see
system.mem_ctrls.rdQLenPdf::29                      0                       # What read queue length does an incoming req see
system.mem_ctrls.rdQLenPdf::30                      0                       # What read queue length does an incoming req see
system.mem_ctrls.rdQLenPdf::31                      0                       # What read queue length does an incoming req see
system.mem_ctrls.wrQLenPdf::0                       1                       # What write queue length does an incoming req see
system.mem_ctrls.wrQLenPdf::1                       1                       # What write queue length does an incoming req see
system.mem_ctrls.wrQLenPdf::2                       1                       # What write queue length does an incoming req see
system.mem_ctrls.wrQLenPdf::3                       1                       # What write queue length does an incoming req see
system.mem_ctrls.wrQLenPdf::4                       1                       # What write queue length does an incoming req see
system.mem_ctrls.wrQLenPdf::5                       1                       # What write queue length does an incoming req see
system.mem_ctrls.wrQLenPdf::6                       1                       # What write queue length does an incoming req see
system.mem_ctrls.wrQLenPdf::7                       1                       # What write queue length does an incoming req see
system.mem_ctrls.wrQLenPdf::8                       1                       # What write queue length does an incoming req see
system.mem_ctrls.wrQLenPdf::9                       1                       # What write queue length does an incoming req see
system.mem_ctrls.wrQLenPdf::10                      1                       # What write queue length does an incoming req see
system.mem_ctrls.wrQLenPdf::11                      1                       # What write queue length does an incoming req see
system.mem_ctrls.wrQLenPdf::12                      1                       # What write queue length does an incoming req see
system.mem_ctrls.wrQLenPdf::13                      1                       # What write queue length does an incoming req see
system.mem_ctrls.wrQLenPdf::14                      1                       # What write queue length does an incoming req see
system.mem_ctrls.wrQLenPdf::15                   1416                       # What write queue length does an incoming req see
system.mem_ctrls.wrQLenPdf::16                   1417                       # What write queue length does an incoming req see
system.mem_ctrls.wrQLenPdf::17                   1447                       # What write queue length does an incoming req see
system.mem_ctrls.wrQLenPdf::18                   1448                       # What write queue length does an incoming req see
system.mem_ctrls.wrQLenPdf::19                   1451                       # What write queue length does an incoming req see
system.mem_ctrls.wrQLenPdf::20                   1454                       # What write queue length does an incoming req see
system.mem_ctrls.wrQLenPdf::21                   1448                       # What write queue length does an incoming req see
system.mem_ctrls.wrQLenPdf::22                   1454                       # What write queue length does an incoming req see
system.mem_ctrls.wrQLenPdf::23                   1466                       # What write queue length does an incoming req see
system.mem_ctrls.wrQLenPdf::24                   1453                       # What write queue length does an incoming req see
system.mem_ctrls.wrQLenPdf::25                   1457                       # What write queue length does an incoming req see
system.mem_ctrls.wrQLenPdf::26                   1447                       # What write queue length does an incoming req see
system.mem_ctrls.wrQLenPdf::27                   1456                       # What write queue length does an incoming req see
system.mem_ctrls.wrQLenPdf::28                   1460                       # What write queue length does an incoming req see
system.mem_ctrls.wrQLenPdf::29                   1450                       # What write queue length does an incoming req see
system.mem_ctrls.wrQLenPdf::30                   1446                       # What write queue length does an incoming req see
system.mem_ctrls.wrQLenPdf::31                   1446                       # What write queue length does an incoming req see
system.mem_ctrls.wrQLenPdf::32                   1446                       # What write queue length does an incoming req see
system.mem_ctrls.wrQLenPdf::33                      0                       # What write queue length does an incoming req see
system.mem_ctrls.wrQLenPdf::34                      0                       # What write queue length does an incoming req see
system.mem_ctrls.wrQLenPdf::35                      0                       # What write queue length does an incoming req see
system.mem_ctrls.wrQLenPdf::36                      0                       # What write queue length does an incoming req see
system.mem_ctrls.wrQLenPdf::37                      0                       # What write queue length does an incoming req see
system.mem_ctrls.wrQLenPdf::38                      0                       # What write queue length does an incoming req see
system.mem_ctrls.wrQLenPdf::39                      0                       # What write queue length does an incoming req see
system.mem_ctrls.wrQLenPdf::40                      0                       # What write queue length does an incoming req see
system.mem_ctrls.wrQLenPdf::41                      0                       # What write queue length does an incoming req see
system.mem_ctrls.wrQLenPdf::42                      0                       # What write queue length does an incoming req see
system.mem_ctrls.wrQLenPdf::43                      0                       # What write queue length does an incoming req see
system.mem_ctrls.wrQLenPdf::44                      0                       # What write queue length does an incoming req see
system.mem_ctrls.wrQLenPdf::45                      0                       # What write queue length does an incoming req see
system.mem_ctrls.wrQLenPdf::46                      0                       # What write queue length does an incoming req see
system.mem_ctrls.wrQLenPdf::47                      0                       # What write queue length does an incoming req see
system.mem_ctrls.wrQLenPdf::48                      0                       # What write queue length does an incoming req see
system.mem_ctrls.wrQLenPdf::49                      0                       # What write queue length does an incoming req see
system.mem_ctrls.wrQLenPdf::50                      0                       # What write queue length does an incoming req see
system.mem_ctrls.wrQLenPdf::51                      0                       # What write queue length does an incoming req see
system.mem_ctrls.wrQLenPdf::52                      0                       # What write queue length does an incoming req see
system.mem_ctrls.wrQLenPdf::53                      0                       # What write queue length does an incoming req see
system.mem_ctrls.wrQLenPdf::54                      0                       # What write queue length does an incoming req see
system.mem_ctrls.wrQLenPdf::55                      0                       # What write queue length does an incoming req see
system.mem_ctrls.wrQLenPdf::56                      0                       # What write queue length does an incoming req see
system.mem_ctrls.wrQLenPdf::57                      0                       # What write queue length does an incoming req see
system.mem_ctrls.wrQLenPdf::58                      0                       # What write queue length does an incoming req see
system.mem_ctrls.wrQLenPdf::59                      0                       # What write queue length does an incoming req see
system.mem_ctrls.wrQLenPdf::60                      0                       # What write queue length does an incoming req see
system.mem_ctrls.wrQLenPdf::61                      0                       # What write queue length does an incoming req see
system.mem_ctrls.wrQLenPdf::62                      0                       # What write queue length does an incoming req see
system.mem_ctrls.wrQLenPdf::63                      0                       # What write queue length does an incoming req see
system.mem_ctrls.bytesPerActivate::samples        29494                       # Bytes accessed per row activation
system.mem_ctrls.bytesPerActivate::mean    149.911982                       # Bytes accessed per row activation
system.mem_ctrls.bytesPerActivate::gmean   109.443725                       # Bytes accessed per row activation
system.mem_ctrls.bytesPerActivate::stdev   178.634744                       # Bytes accessed per row activation
system.mem_ctrls.bytesPerActivate::0-127        14706     49.86%     49.86% # Bytes accessed per row activation
system.mem_ctrls.bytesPerActivate::128-255        11224     38.06%     87.92% # Bytes accessed per row activation
system.mem_ctrls.bytesPerActivate::256-383         1936      6.56%     94.48% # Bytes accessed per row activation
system.mem_ctrls.bytesPerActivate::384-511          220      0.75%     95.23% # Bytes accessed per row activation
system.mem_ctrls.bytesPerActivate::512-639          197      0.67%     95.89% # Bytes accessed per row activation
system.mem_ctrls.bytesPerActivate::640-767          188      0.64%     96.53% # Bytes accessed per row activation
system.mem_ctrls.bytesPerActivate::768-895          181      0.61%     97.15% # Bytes accessed per row activation
system.mem_ctrls.bytesPerActivate::896-1023          216      0.73%     97.88% # Bytes accessed per row activation
system.mem_ctrls.bytesPerActivate::1024-1151          626      2.12%    100.00% # Bytes accessed per row activation
system.mem_ctrls.bytesPerActivate::total        29494                       # Bytes accessed per row activation
system.mem_ctrls.rdPerTurnAround::samples         1446                       # Reads before turning the bus around for writes
system.mem_ctrls.rdPerTurnAround::mean      29.754495                       # Reads before turning the bus around for writes
system.mem_ctrls.rdPerTurnAround::gmean     19.973785                       # Reads before turning the bus around for writes
system.mem_ctrls.rdPerTurnAround::stdev    324.083463                       # Reads before turning the bus around for writes
system.mem_ctrls.rdPerTurnAround::0-511          1445     99.93%     99.93% # Reads before turning the bus around for writes
system.mem_ctrls.rdPerTurnAround::12288-12799            1      0.07%    100.00% # Reads before turning the bus around for writes
[...]
system.cpu.icache.tags.occ_percent::total     0.433182                       # Average percentage of cache occupancy
system.cpu.icache.tags.occ_task_id_blocks::1024          444                       # Occupied blocks per task id
system.cpu.icache.tags.age_task_id_blocks_1024::3            5                       # Occupied blocks per task id
system.cpu.icache.tags.age_task_id_blocks_1024::4          439                       # Occupied blocks per task id
system.cpu.icache.tags.occ_task_id_percent::1024     0.433594                       # Percentage of cache occupancy per task id
system.cpu.icache.tags.tag_accesses          28720719                       # Number of tag accesses
system.cpu.icache.tags.data_accesses         28720719                       # Number of data accesses
system.cpu.dtb.walker.pwrStateResidencyTicks::UNDEFINED 117321707000                       # Cumulative time (in ticks) in various power states
system.cpu.dtb.stage2_mmu.stage2_tlb.walker.pwrStateResidencyTicks::UNDEFINED 117321707000                       # Cumulative time (in ticks) in various power states
system.cpu.dcache.pwrStateResidencyTicks::UNDEFINED 117321707000                       # Cumulative time (in ticks) in various power states
system.cpu.dcache.demand_hits::.cpu.data     35487839                       # number of demand (read+write) hits
system.cpu.dcache.demand_hits::total         35487839                       # number of demand (read+write) hits
system.cpu.dcache.overall_hits::.cpu.data     35491101                       # number of overall hits
system.cpu.dcache.overall_hits::total        35491101                       # number of overall hits
system.cpu.dcache.demand_misses::.cpu.data       249455                       # number of demand (read+write) misses
system.cpu.dcache.demand_misses::total         249455                       # number of demand (read+write) misses
system.cpu.dcache.overall_misses::.cpu.data       249554                       # number of overall misses
system.cpu.dcache.overall_misses::total        249554                       # number of overall misses
system.cpu.dcache.demand_miss_latency::.cpu.data  10867648000                       # number of demand (read+write) miss cycles
system.cpu.dcache.demand_miss_latency::total  10867648000                       # number of demand (read+write) miss cycles
system.cpu.dcache.overall_miss_latency::.cpu.data  10867648000                       # number of overall miss cycles
system.cpu.dcache.overall_miss_latency::total  10867648000                       # number of overall miss cycles
system.cpu.dcache.demand_accesses::.cpu.data     35737294                       # number of demand (read+write) accesses
system.cpu.dcache.demand_accesses::total     35737294                       # number of demand (read+write) accesses
system.cpu.dcache.overall_accesses::.cpu.data     35740655                       # number of overall (read+write) accesses
system.cpu.dcache.overall_accesses::total     35740655                       # number of overall (read+write) accesses
system.cpu.dcache.demand_miss_rate::.cpu.data     0.006980                       # miss rate for demand accesses
system.cpu.dcache.demand_miss_rate::total     0.006980                       # miss rate for demand accesses
system.cpu.dcache.overall_miss_rate::.cpu.data     0.006982                       # miss rate for overall accesses
system.cpu.dcache.overall_miss_rate::total     0.006982                       # miss rate for overall accesses
system.cpu.dcache.demand_avg_miss_latency::.cpu.data 43565.564932                       # average overall miss latency
system.cpu.dcache.demand_avg_miss_latency::total 43565.564932                       # average overall miss latency
system.cpu.dcache.overall_avg_miss_latency::.cpu.data 43548.282135                       # average overall miss latency
system.cpu.dcache.overall_avg_miss_latency::total 43548.282135                       # average overall miss latency
system.cpu.dcache.blocked_cycles::no_mshrs            0                       # number of cycles access was blocked
system.cpu.dcache.blocked_cycles::no_targets            0                       # number of cycles access was blocked
system.cpu.dcache.blocked::no_mshrs                 0                       # number of cycles access was blocked
system.cpu.dcache.blocked::no_targets               0                       # number of cycles access was blocked
system.cpu.dcache.avg_blocked_cycles::no_mshrs          nan                       # average number of cycles each access was blocked
system.cpu.dcache.avg_blocked_cycles::no_targets          nan                       # average number of cycles each access was blocked
system.cpu.dcache.writebacks::.writebacks       117226                       # number of writebacks
system.cpu.dcache.writebacks::total            117226                       # number of writebacks
system.cpu.dcache.demand_mshr_hits::.cpu.data        33265                       # number of demand (read+write) MSHR hits
system.cpu.dcache.demand_mshr_hits::total        33265                       # number of demand (read+write) MSHR hits
system.cpu.dcache.overall_mshr_hits::.cpu.data        33265                       # number of overall MSHR hits
system.cpu.dcache.overall_mshr_hits::total        33265                       # number of overall MSHR hits
system.cpu.dcache.demand_mshr_misses::.cpu.data       216190                       # number of demand (read+write) MSHR misses
system.cpu.dcache.demand_mshr_misses::total       216190                       # number of demand (read+write) MSHR misses
system.cpu.dcache.overall_mshr_misses::.cpu.data       216284                       # number of overall MSHR misses
system.cpu.dcache.overall_mshr_misses::total       216284                       # number of overall MSHR misses
system.cpu.dcache.demand_mshr_miss_latency::.cpu.data   8777694000                       # number of demand (read+write) MSHR miss cycles
system.cpu.dcache.demand_mshr_miss_latency::total   8777694000                       # number of demand (read+write) MSHR miss cycles
system.cpu.dcache.overall_mshr_miss_latency::.cpu.data   8781534000                       # number of overall MSHR miss cycles
system.cpu.dcache.overall_mshr_miss_latency::total   8781534000                       # number of overall MSHR miss cycles
system.cpu.dcache.demand_mshr_miss_rate::.cpu.data     0.006049                       # mshr miss rate for demand accesses
system.cpu.dcache.demand_mshr_miss_rate::total     0.006049                       # mshr miss rate for demand accesses
system.cpu.dcache.overall_mshr_miss_rate::.cpu.data     0.006051                       # mshr miss rate for overall accesses
system.cpu.dcache.overall_mshr_miss_rate::total     0.006051                       # mshr miss rate for overall accesses
system.cpu.dcache.demand_avg_mshr_miss_latency::.cpu.data 40601.757713                       # average overall mshr miss latency
system.cpu.dcache.demand_avg_mshr_miss_latency::total 40601.757713                       # average overall mshr miss latency
system.cpu.dcache.overall_avg_mshr_miss_latency::.cpu.data 40601.866065                       # average overall mshr miss latency
system.cpu.dcache.overall_avg_mshr_miss_latency::total 40601.866065                       # average overall mshr miss latency
system.cpu.dcache.replacements                 215773                       # number of replacements
system.cpu.dcache.ReadReq_hits::.cpu.data     21303644                       # number of ReadReq hits
system.cpu.dcache.ReadReq_hits::total        21303644                       # number of ReadReq hits
system.cpu.dcache.ReadReq_misses::.cpu.data       178899                       # number of ReadReq misses
system.cpu.dcache.ReadReq_misses::total        178899                       # number of ReadReq misses
system.cpu.dcache.ReadReq_miss_latency::.cpu.data   5055923000                       # number of ReadReq miss cycles
system.cpu.dcache.ReadReq_miss_latency::total   5055923000                       # number of ReadReq miss cycles
system.cpu.dcache.ReadReq_accesses::.cpu.data     21482543                       # number of ReadReq accesses(hits+misses)
system.cpu.dcache.ReadReq_accesses::total     21482543                       # number of ReadReq accesses(hits+misses)
system.cpu.dcache.ReadReq_miss_rate::.cpu.data     0.008328                       # miss rate for ReadReq accesses
system.cpu.dcache.ReadReq_miss_rate::total     0.008328                       # miss rate for ReadReq accesses
system.cpu.dcache.ReadReq_avg_miss_latency::.cpu.data 28261.326223                       # average ReadReq miss latency
system.cpu.dcache.ReadReq_avg_miss_latency::total 28261.326223                       # average ReadReq miss latency
system.cpu.dcache.ReadReq_mshr_hits::.cpu.data        10277                       # number of ReadReq MSHR hits
system.cpu.dcache.ReadReq_mshr_hits::total        10277                       # number of ReadReq MSHR hits
system.cpu.dcache.ReadReq_mshr_misses::.cpu.data       168622                       # number of ReadReq MSHR misses
system.cpu.dcache.ReadReq_mshr_misses::total       168622                       # number of ReadReq MSHR misses
system.cpu.dcache.ReadReq_mshr_miss_latency::.cpu.data   4416489000                       # number of ReadReq MSHR miss cycles
system.cpu.dcache.ReadReq_mshr_miss_latency::total   4416489000                       # number of ReadReq MSHR miss cycles
system.cpu.dcache.ReadReq_mshr_miss_rate::.cpu.data     0.007849                       # mshr miss rate for ReadReq accesses
system.cpu.dcache.ReadReq_mshr_miss_rate::total     0.007849                       # mshr miss rate for ReadReq accesses
system.cpu.dcache.ReadReq_avg_mshr_miss_latency::.cpu.data 26191.653521                       # average ReadReq mshr miss latency
system.cpu.dcache.ReadReq_avg_mshr_miss_latency::total 26191.653521                       # average ReadReq mshr miss latency
system.cpu.dcache.WriteReq_hits::.cpu.data     14184195                       # number of WriteReq hits
system.cpu.dcache.WriteReq_hits::total       14184195                       # number of WriteReq hits
system.cpu.dcache.WriteReq_misses::.cpu.data        70556                       # number of WriteReq misses
system.cpu.dcache.WriteReq_misses::total        70556                       # number of WriteReq misses
system.cpu.dcache.WriteReq_miss_latency::.cpu.data   5811725000                       # number of WriteReq miss cycles
system.cpu.dcache.WriteReq_miss_latency::total   5811725000                       # number of WriteReq miss cycles
system.cpu.dcache.WriteReq_accesses::.cpu.data     14254751                       # number of WriteReq accesses(hits+misses)
system.cpu.dcache.WriteReq_accesses::total     14254751                       # number of WriteReq accesses(hits+misses)
system.cpu.dcache.WriteReq_miss_rate::.cpu.data     0.004950                       # miss rate for WriteReq accesses
system.cpu.dcache.WriteReq_miss_rate::total     0.004950                       # miss rate for WriteReq accesses
system.cpu.dcache.WriteReq_avg_miss_latency::.cpu.data 82370.386643                       # average WriteReq miss latency
system.cpu.dcache.WriteReq_avg_miss_latency::total 82370.386643                       # average WriteReq miss latency
system.cpu.dcache.WriteReq_mshr_hits::.cpu.data        22988                       # number of WriteReq MSHR hits
system.cpu.dcache.WriteReq_mshr_hits::total        22988                       # number of WriteReq MSHR hits
system.cpu.dcache.WriteReq_mshr_misses::.cpu.data        47568                       # number of WriteReq MSHR misses
system.cpu.dcache.WriteReq_mshr_misses::total        47568                       # number of WriteReq MSHR misses
system.cpu.dcache.WriteReq_mshr_miss_latency::.cpu.data   4361205000                       # number of WriteReq MSHR miss cycles
system.cpu.dcache.WriteReq_mshr_miss_latency::total   4361205000                       # number of WriteReq MSHR miss cycles
system.cpu.dcache.WriteReq_mshr_miss_rate::.cpu.data     0.003337                       # mshr miss rate for WriteReq accesses
system.cpu.dcache.WriteReq_mshr_miss_rate::total     0.003337                       # mshr miss rate for WriteReq accesses
system.cpu.dcache.WriteReq_avg_mshr_miss_latency::.cpu.data 91683.589808                       # average WriteReq mshr miss latency
system.cpu.dcache.WriteReq_avg_mshr_miss_latency::total 91683.589808                       # average WriteReq mshr miss latency
system.cpu.dcache.SoftPFReq_hits::.cpu.data         3262                       # number of SoftPFReq hits
system.cpu.dcache.SoftPFReq_hits::total          3262                       # number of SoftPFReq hits
system.cpu.dcache.SoftPFReq_misses::.cpu.data           99                       # number of SoftPFReq misses
system.cpu.dcache.SoftPFReq_misses::total           99                       # number of SoftPFReq misses
system.cpu.dcache.SoftPFReq_accesses::.cpu.data         3361                       # number of SoftPFReq accesses(hits+misses)
system.cpu.dcache.SoftPFReq_accesses::total         3361                       # number of SoftPFReq accesses(hits+misses)
system.cpu.dcache.SoftPFReq_miss_rate::.cpu.data     0.029456                       # miss rate for SoftPFReq accesses
system.cpu.dcache.SoftPFReq_miss_rate::total     0.029456                       # miss rate for SoftPFReq accesses
system.cpu.dcache.SoftPFReq_mshr_misses::.cpu.data           94                       # number of SoftPFReq MSHR misses
system.cpu.dcache.SoftPFReq_mshr_misses::total           94                       # number of SoftPFReq MSHR misses
system.cpu.dcache.SoftPFReq_mshr_miss_latency::.cpu.data      3840000                       # number of SoftPFReq MSHR miss cycles
system.cpu.dcache.SoftPFReq_mshr_miss_latency::total      3840000                       # number of SoftPFReq MSHR miss cycles
system.cpu.dcache.SoftPFReq_mshr_miss_rate::.cpu.data     0.027968                       # mshr miss rate for SoftPFReq accesses
system.cpu.dcache.SoftPFReq_mshr_miss_rate::total     0.027968                       # mshr miss rate for SoftPFReq accesses
system.cpu.dcache.SoftPFReq_avg_mshr_miss_latency::.cpu.data 40851.063830                       # average SoftPFReq mshr miss latency
system.cpu.dcache.SoftPFReq_avg_mshr_miss_latency::total 40851.063830                       # average SoftPFReq mshr miss latency
system.cpu.dcache.LoadLockedReq_hits::.cpu.data        89081                       # number of LoadLockedReq hits
system.cpu.dcache.LoadLockedReq_hits::total        89081                       # number of LoadLockedReq hits
system.cpu.dcache.LoadLockedReq_misses::.cpu.data            1                       # number of LoadLockedReq misses
system.cpu.dcache.LoadLockedReq_misses::total            1                       # number of LoadLockedReq misses
system.cpu.dcache.LoadLockedReq_miss_latency::.cpu.data        26000                       # number of LoadLockedReq miss cycles
system.cpu.dcache.LoadLockedReq_miss_latency::total        26000                       # number of LoadLockedReq miss cycles
system.cpu.dcache.LoadLockedReq_accesses::.cpu.data        89082                       # number of LoadLockedReq accesses(hits+misses)
system.cpu.dcache.LoadLockedReq_accesses::total        89082                       # number of LoadLockedReq accesses(hits+misses)
system.cpu.dcache.LoadLockedReq_miss_rate::.cpu.data     0.000011                       # miss rate for LoadLockedReq accesses
system.cpu.dcache.LoadLockedReq_miss_rate::total     0.000011                       # miss rate for LoadLockedReq accesses
system.cpu.dcache.LoadLockedReq_avg_miss_latency::.cpu.data        26000                       # average LoadLockedReq miss latency
system.cpu.dcache.LoadLockedReq_avg_miss_latency::total        26000                       # average LoadLockedReq miss latency
system.cpu.dcache.LoadLockedReq_mshr_misses::.cpu.data            1                       # number of LoadLockedReq MSHR misses
system.cpu.dcache.LoadLockedReq_mshr_misses::total            1                       # number of LoadLockedReq MSHR misses
system.cpu.dcache.LoadLockedReq_mshr_miss_latency::.cpu.data        24000                       # number of LoadLockedReq MSHR miss cycles
system.cpu.dcache.LoadLockedReq_mshr_miss_latency::total        24000                       # number of LoadLockedReq MSHR miss cycles
system.cpu.dcache.LoadLockedReq_mshr_miss_rate::.cpu.data     0.000011                       # mshr miss rate for LoadLockedReq accesses
system.cpu.dcache.LoadLockedReq_mshr_miss_rate::total     0.000011                       # mshr miss rate for LoadLockedReq accesses
system.cpu.dcache.LoadLockedReq_avg_mshr_miss_latency::.cpu.data        24000                       # average LoadLockedReq mshr miss latency
system.cpu.dcache.LoadLockedReq_avg_mshr_miss_latency::total        24000                       # average LoadLockedReq mshr miss latency
system.cpu.dcache.StoreCondReq_hits::.cpu.data        89082                       # number of StoreCondReq hits
system.cpu.dcache.StoreCondReq_hits::total        89082                       # number of StoreCondReq hits
system.cpu.dcache.StoreCondReq_accesses::.cpu.data        89082                       # number of StoreCondReq accesses(hits+misses)
system.cpu.dcache.StoreCondReq_accesses::total        89082                       # number of StoreCondReq accesses(hits+misses)
system.cpu.dcache.tags.pwrStateResidencyTicks::UNDEFINED 117321707000                       # Cumulative time (in ticks) in various power states
system.cpu.dcache.tags.tagsinuse           511.002932                       # Cycle average of tags in use
system.cpu.dcache.tags.total_refs            35885549                       # Total number of references to valid blocks.
system.cpu.dcache.tags.sampled_refs            216285                       # Sample count of references to valid blocks.
system.cpu.dcache.tags.avg_refs            165.917881                       # Average number of references to valid blocks.
system.cpu.dcache.tags.warmup_cycle            240000                       # Cycle when the warmup percentage was hit.
system.cpu.dcache.tags.occ_blocks::.cpu.data   511.002932                       # Average occupied blocks per requestor
system.cpu.dcache.tags.occ_percent::.cpu.data     0.998053                       # Average percentage of cache occupancy
system.cpu.dcache.tags.occ_percent::total     0.998053                       # Average percentage of cache occupancy
system.cpu.dcache.tags.occ_task_id_blocks::1024          512                       # Occupied blocks per task id
system.cpu.dcache.tags.age_task_id_blocks_1024::0            6                       # Occupied blocks per task id
system.cpu.dcache.tags.age_task_id_blocks_1024::1           35                       # Occupied blocks per task id
system.cpu.dcache.tags.age_task_id_blocks_1024::2          221                       # Occupied blocks per task id
system.cpu.dcache.tags.age_task_id_blocks_1024::3          250                       # Occupied blocks per task id
system.cpu.dcache.tags.occ_task_id_percent::1024            1                       # Percentage of cache occupancy per task id
system.cpu.dcache.tags.tag_accesses          36135104                       # Number of tag accesses
system.cpu.dcache.tags.data_accesses         36135104                       # Number of data accesses
system.cpu.itb.walker.pwrStateResidencyTicks::UNDEFINED 117321707000                       # Cumulative time (in ticks) in various power states
system.cpu.itb.stage2_mmu.stage2_tlb.walker.pwrStateResidencyTicks::UNDEFINED 117321707000                       # Cumulative time (in ticks) in various power states

---------- End Simulation Statistics   ----------
