
---------- Begin Simulation Statistics ----------
final_tick                               117855815000                       # Number of ticks from beginning of simulation (restored from checkpoints and never reset)
host_inst_rate                                 345614                       # Simulator instruction rate (inst/s)
host_mem_usage                                 684512                       # Number of bytes of host memory used
host_op_rate                                   378212                       # Simulator op (including micro ops) rate (op/s)
host_seconds                                   289.34                       # Real time elapsed on the host
host_tick_rate                              407325890                       # Simulator tick rate (ticks/s)
sim_freq                                 1000000000000                       # Frequency of simulated ticks
sim_insts                                   100000001                       # Number of instructions simulated
sim_ops                                     109431937                       # Number of ops (including micro ops) simulated
sim_seconds                                  0.117856                       # Number of seconds simulated
sim_ticks                                117855815000                       # Number of ticks simulated
system.cpu.branchPred.BTBCorrect                    0                       # Number of correct BTB predictions (this stat may not work properly.
system.cpu.branchPred.BTBHitPct             87.597013                       # BTB Hit Percentage
system.cpu.branchPred.BTBHits                 8748156                       # Number of BTB hits
system.cpu.branchPred.BTBLookups              9986820                       # Number of BTB lookups
system.cpu.branchPred.RASInCorrect                348                       # Number of incorrect RAS predictions.
system.cpu.branchPred.condIncorrect            155025                       # Number of conditional branches incorrect
system.cpu.branchPred.condPredicted          16528361                       # Number of conditional branches predicted
system.cpu.branchPred.indirectHits             300026                       # Number of indirect target hits.
system.cpu.branchPred.indirectLookups          540257                       # Number of indirect predictor lookups.
system.cpu.branchPred.indirectMisses           240231                       # Number of indirect misses.
system.cpu.branchPred.lookups                20635781                       # Number of BP lookups
system.cpu.branchPred.usedRAS                 1050684                       # Number of times the RAS was used to get a target.
system.cpu.branchPredindirectMispredicted         1210                       # Number of mispredicted indirect branches.
system.cpu.committedInsts                   100000001                       # Number of instructions committed
system.cpu.committedOps                     109431937                       # Number of ops (including micro ops) committed
system.cpu.cpi                               1.178558                       # CPI: cycles per instruction
system.cpu.discardedOps                        732728                       # Number of ops (including micro ops) which were discarded before commit
system.cpu.dtb.accesses                             0                       # DTB accesses
system.cpu.dtb.align_faults                         0                       # Number of TLB faults due to alignment restrictions
system.cpu.dtb.domain_faults                        0                       # Number of TLB faults due to domain restrictions
system.cpu.dtb.flush_entries                        0                       # Number of entries that have been flushed from TLB
system.cpu.dtb.flush_tlb                            0                       # Number of times complete TLB was flushed
system.cpu.dtb.flush_tlb_asid                       0                       # Number of times TLB was flushed by ASID
system.cpu.dtb.flush_tlb_mva                        0                       # Number of times TLB was flushed by MVA
system.cpu.dtb.flush_tlb_mva_asid                   0                       # Number of times TLB was flushed by MVA & ASID
system.cpu.dtb.hits                                 0                       # DTB hits
system.cpu.dtb.inst_accesses                        0                       # ITB inst accesses
system.cpu.dtb.inst_hits                            0                       # ITB inst hits
system.cpu.dtb.inst_misses                          0                       # ITB inst misses
system.cpu.dtb.misses                               0                       # DTB misses
system.cpu.dtb.perms_faults                         0                       # Number of TLB faults due to permissions restrictions
system.cpu.dtb.prefetch_faults                      0                       # Number of TLB faults due to prefetch
system.cpu.dtb.read_accesses                        0                       # DTB read accesses
system.cpu.dtb.read_hits                            0                       # DTB read hits
system.cpu.dtb.read_misses                          0                       # DTB read misses
system.cpu.dtb.stage2_mmu.stage2_tlb.accesses            0                       # DTB accesses
system.cpu.dtb.stage2_mmu.stage2_tlb.align_faults            0                       # Number of TLB faults due to alignment restrictions
system.cpu.dtb.stage2_mmu.stage2_tlb.domain_faults            0                       # Number of TLB faults due to domain restrictions
system.cpu.dtb.stage2_mmu.stage2_tlb.flush_entries            0                       # Number of entries that have been flushed from TLB
system.cpu.dtb.stage2_mmu.stage2_tlb.flush_tlb            0                       # Number of times complete TLB was flushed
system.cpu.dtb.stage2_mmu.stage2_tlb.flush_tlb_asid            0                       # Number of times TLB was flushed by ASID
system.cpu.dtb.stage2_mmu.stage2_tlb.flush_tlb_mva            0                       # Number of times TLB was flushed by MVA
system.cpu.dtb.stage2_mmu.stage2_tlb.flush_tlb_mva_asid            0                       # Number of times TLB was flushed by MVA & ASID
system.cpu.dtb.stage2_mmu.stage2_tlb.hits            0                       # DTB hits
system.cpu.dtb.stage2_mmu.stage2_tlb.inst_accesses            0                       # ITB inst accesses
system.cpu.dtb.stage2_mmu.stage2_tlb.inst_hits            0                       # ITB inst hits
system.cpu.dtb.stage2_mmu.stage2_tlb.inst_misses            0                       # ITB inst misses
system.cpu.dtb.stage2_mmu.stage2_tlb.misses            0                       # DTB misses
system.cpu.dtb.stage2_mmu.stage2_tlb.perms_faults            0                       # Number of TLB faults due to permissions restrictions
system.cpu.dtb.stage2_mmu.stage2_tlb.prefetch_faults            0                       # Number of TLB faults due to prefetch
system.cpu.dtb.stage2_mmu.stage2_tlb.read_accesses            0                       # DTB read accesses
system.cpu.dtb.stage2_mmu.stage2_tlb.read_hits            0                       # DTB read hits
system.cpu.dtb.stage2_mmu.stage2_tlb.read_misses            0                       # DTB read misses
system.cpu.dtb.stage2_mmu.stage2_tlb.walker.walkRequestOrigin_Requested::Data            0                       # Table walker requests started/completed, data/inst
system.cpu.dtb.stage2_mmu.stage2_tlb.walker.walkRequestOrigin_Requested::Inst            0                       # Table walker requests started/completed, data/inst
system.cpu.dtb.stage2_mmu.stage2_tlb.walker.walkRequestOrigin_Requested::total            0                       # Table walker requests started/completed, data/inst
system.cpu.dtb.stage2_mmu.stage2_tlb.walker.walkRequestOrigin_Completed::Data            0                       # Table walker requests started/completed, data/inst
system.cpu.dtb.stage2_mmu.stage2_tlb.walker.walkRequestOrigin_Completed::Inst            0                       # Table walker requests started/completed, data/inst
system.cpu.dtb.stage2_mmu.stage2_tlb.walker.walkRequestOrigin_Completed::total            0                       # Table walker requests started/completed, data/inst
system.cpu.dtb.stage2_mmu.stage2_tlb.walker.walkRequestOrigin::total            0                       # Table walker requests started/completed, data/inst
system.cpu.dtb.stage2_mmu.stage2_tlb.walker.walks            0                       # Table walker walks requested
system.cpu.dtb.stage2_mmu.stage2_tlb.write_accesses            0                       # DTB write accesses
system.cpu.dtb.stage2_mmu.stage2_tlb.write_hits            0                       # DTB write hits
system.cpu.dtb.stage2_mmu.stage2_tlb.write_misses            0                       # DTB write misses
system.cpu.dtb.walker.walkRequestOrigin_Requested::Data            0                       # Table walker requests started/completed, data/inst
system.cpu.dtb.walker.walkRequestOrigin_Requested::Inst            0                       # Table walker requests started/completed, data/inst
system.cpu.dtb.walker.walkRequestOrigin_Requested::total            0                       # Table walker requests started/completed, data/inst
system.cpu.dtb.walker.walkRequestOrigin_Completed::Data            0                       # Table walker requests started/completed, data/inst
system.cpu.dtb.walker.walkRequestOrigin_Completed::Inst            0                       # Table walker requests started/completed, data/inst
system.cpu.dtb.walker.walkRequestOrigin_Completed::total            0                       # Table walker requests started/completed, data/inst
system.cpu.dtb.walker.walkRequestOrigin::total            0                       # Table walker requests started/completed, data/inst
system.cpu.dtb.walker.walks                         0                       # Table walker walks requested
system.cpu.dtb.write_accesses                       0                       # DTB write accesses
system.cpu.dtb.write_hits                           0                       # DTB write hits
system.cpu.dtb.write_misses                         0                       # DTB write misses
system.cpu.fetch2.amo_instructions                  0                       # Number of memory atomic instructions successfully decoded
system.cpu.fetch2.fp_instructions                   0                       # Number of floating point instructions successfully decoded
system.cpu.fetch2.int_instructions           49965529                       # Number of integer instructions successfully decoded
system.cpu.fetch2.load_instructions          17199435                       # Number of memory load instructions successfully decoded
system.cpu.fetch2.store_instructions         10036412                       # Number of memory store instructions successfully decoded
system.cpu.fetch2.vec_instructions                  0                       # Number of SIMD instructions successfully decoded
system.cpu.idleCycles                         6535571                       # Total number of cycles that the object has spent stopped
system.cpu.ipc                               0.848494                       # IPC: instructions per cycle
system.cpu.itb.accesses                             0                       # DTB accesses
system.cpu.itb.align_faults                         0                       # Number of TLB faults due to alignment restrictions
system.cpu.itb.domain_faults                        0                       # Number of TLB faults due to domain restrictions
system.cpu.itb.flush_entries                        0                       # Number of entries that have been flushed from TLB
system.cpu.itb.flush_tlb                            0                       # Number of times complete TLB was flushed
system.cpu.itb.flush_tlb_asid                       0                       # Number of times TLB was flushed by ASID
system.cpu.itb.flush_tlb_mva                        0                       # Number of times TLB was flushed by MVA
system.cpu.itb.flush_tlb_mva_asid                   0                       # Number of times TLB was flushed by MVA & ASID
system.cpu.itb.hits                                 0                       # DTB hits
system.cpu.itb.inst_accesses                        0                       # ITB inst accesses
system.cpu.itb.inst_hits                            0                       # ITB inst hits
system.cpu.itb.inst_misses                          0                       # ITB inst misses
system.cpu.itb.misses                               0                       # DTB misses
system.cpu.itb.perms_faults                         0                       # Number of TLB faults due to permissions restrictions
system.cpu.itb.prefetch_faults                      0                       # Number of TLB faults due to prefetch
system.cpu.itb.read_accesses                        0                       # DTB read accesses
system.cpu.itb.read_hits                            0                       # DTB read hits
system.cpu.itb.read_misses                          0                       # DTB read misses
system.cpu.itb.stage2_mmu.stage2_tlb.accesses            0                       # DTB accesses
system.cpu.itb.stage2_mmu.stage2_tlb.align_faults            0                       # Number of TLB faults due to alignment restrictions
system.cpu.itb.stage2_mmu.stage2_tlb.domain_faults            0                       # Number of TLB faults due to domain restrictions
system.cpu.itb.stage2_mmu.stage2_tlb.flush_entries            0                       # Number of entries that have been flushed from TLB
system.cpu.itb.stage2_mmu.stage2_tlb.flush_tlb            0                       # Number of times complete TLB was flushed
system.cpu.itb.stage2_mmu.stage2_tlb.flush_tlb_asid            0                       # Number of times TLB was flushed by ASID
system.cpu.itb.stage2_mmu.stage2_tlb.flush_tlb_mva            0                       # Number of times TLB was flushed by MVA
system.cpu.itb.stage2_mmu.stage2_tlb.flush_tlb_mva_asid            0                       # Number of times TLB was flushed by MVA & ASID
system.cpu.itb.stage2_mmu.stage2_tlb.hits            0                       # DTB hits
system.cpu.itb.stage2_mmu.stage2_tlb.inst_accesses            0                       # ITB inst accesses
system.cpu.itb.stage2_mmu.stage2_tlb.inst_hits            0                       # ITB inst hits
system.cpu.itb.stage2_mmu.stage2_tlb.inst_misses            0                       # ITB inst misses
system.cpu.itb.stage2_mmu.stage2_tlb.misses            0                       # DTB misses
system.cpu.itb.stage2_mmu.stage2_tlb.perms_faults            0                       # Number of TLB faults due to permissions restrictions
system.cpu.itb.stage2_mmu.stage2_tlb.prefetch_faults            0                       # Number of TLB faults due to prefetch
system.cpu.itb.stage2_mmu.stage2_tlb.read_accesses            0                       # DTB read accesses
system.cpu.itb.stage2_mmu.stage2_tlb.read_hits            0                       # DTB read hits
system.cpu.itb.stage2_mmu.stage2_tlb.read_misses            0                       # DTB read misses
system.cpu.itb.stage2_mmu.stage2_tlb.walker.walkRequestOrigin_Requested::Data            0                       # Table walker requests started/completed, data/inst
system.cpu.itb.stage2_mmu.stage2_tlb.walker.walkRequestOrigin_Requested::Inst            0                       # Table walker requests started/completed, data/inst
system.cpu.itb.stage2_mmu.stage2_tlb.walker.walkRequestOrigin_Requested::total            0                       # Table walker requests started/completed, data/inst
system.cpu.itb.stage2_mmu.stage2_tlb.walker.walkRequestOrigin_Completed::Data            0                       # Table walker requests started/completed, data/inst
system.cpu.itb.stage2_mmu.stage2_tlb.walker.walkRequestOrigin_Completed::Inst            0                       # Table walker requests started/completed, data/inst
system.cpu.itb.stage2_mmu.stage2_tlb.walker.walkRequestOrigin_Completed::total            0                       # Table walker requests started/completed, data/inst
system.cpu.itb.stage2_mmu.stage2_tlb.walker.walkRequestOrigin::total            0                       # Table walker requests started/completed, data/inst
system.cpu.itb.stage2_mmu.stage2_tlb.walker.walks            0                       # Table walker walks requested
system.cpu.itb.stage2_mmu.stage2_tlb.write_accesses            0                       # DTB write accesses
system.cpu.itb.stage2_mmu.stage2_tlb.write_hits            0                       # DTB write hits
system.cpu.itb.stage2_mmu.stage2_tlb.write_misses            0                       # DTB write misses
system.cpu.itb.walker.walkRequestOrigin_Requested::Data            0                       # Table walker requests started/completed, data/inst
system.cpu.itb.walker.walkRequestOrigin_Requested::Inst            0                       # Table walker requests started/completed, data/inst
system.cpu.itb.walker.walkRequestOrigin_Requested::total            0                       # Table walker requests started/completed, data/inst
system.cpu.itb.walker.walkRequestOrigin_Completed::Data            0                       # Table walker requests started/completed, data/inst
system.cpu.itb.walker.walkRequestOrigin_Completed::Inst            0                       # Table walker requests started/completed, data/inst
system.cpu.itb.walker.walkRequestOrigin_Completed::total            0                       # Table walker requests started/completed, data/inst
system.cpu.itb.walker.walkRequestOrigin::total            0                       # Table walker requests started/completed, data/inst
system.cpu.itb.walker.walks                         0                       # Table walker walks requested
system.cpu.itb.write_accesses                       0                       # DTB write accesses
system.cpu.itb.write_hits                           0                       # DTB write hits
system.cpu.itb.write_misses                         0                       # DTB write misses
system.cpu.numCycles                        117855815                       # number of cpu cycles simulated
system.cpu.numFetchSuspends                         0                       # Number of times Execute suspended instruction fetching
system.cpu.numWorkItemsCompleted                    0                       # number of work items this cpu completed
system.cpu.numWorkItemsStarted                      0                       # number of work items this cpu started
system.cpu.op_class_0::No_OpClass                   0      0.00%      0.00% # Class of committed instruction
system.cpu.op_class_0::IntAlu                72955303     66.67%     66.67% # Class of committed instruction
system.cpu.op_class_0::IntMult                 568365      0.52%     67.19% # Class of committed instruction
system.cpu.op_class_0::IntDiv                       0      0.00%     67.19% # Class of committed instruction
system.cpu.op_class_0::FloatAdd                     0      0.00%     67.19% # Class of committed instruction
system.cpu.op_class_0::FloatCmp                     0      0.00%     67.19% # Class of committed instruction
system.cpu.op_class_0::FloatCvt                     0      0.00%     67.19% # Class of committed instruction
system.cpu.op_class_0::FloatMult                    0      0.00%     67.19% # Class of committed instruction
system.cpu.op_class_0::FloatMultAcc                 0      0.00%     67.19% # Class of committed instruction
system.cpu.op_class_0::FloatDiv                     0      0.00%     67.19% # Class of committed instruction
system.cpu.op_class_0::FloatMisc                    0      0.00%     67.19% # Class of committed instruction
system.cpu.op_class_0::FloatSqrt                    0      0.00%     67.19% # Class of committed instruction
system.cpu.op_class_0::SimdAdd                 241252      0.22%     67.41% # Class of committed instruction
system.cpu.op_class_0::SimdAddAcc                   0      0.00%     67.41% # Class of committed instruction
system.cpu.op_class_0::SimdAlu                 154720      0.14%     67.55% # Class of committed instruction
system.cpu.op_class_0::SimdCmp                 120626      0.11%     67.66% # Class of committed instruction
system.cpu.op_class_0::SimdCvt                      0      0.00%     67.66% # Class of committed instruction
system.cpu.op_class_0::SimdMisc                 44544      0.04%     67.70% # Class of committed instruction
system.cpu.op_class_0::SimdMult                     0      0.00%     67.70% # Class of committed instruction
system.cpu.op_class_0::SimdMultAcc                  0      0.00%     67.70% # Class of committed instruction
system.cpu.op_class_0::SimdShift                    0      0.00%     67.70% # Class of committed instruction
system.cpu.op_class_0::SimdShiftAcc                 0      0.00%     67.70% # Class of committed instruction
system.cpu.op_class_0::SimdDiv                      0      0.00%     67.70% # Class of committed instruction
system.cpu.op_class_0::SimdSqrt                     0      0.00%     67.70% # Class of committed instruction
system.cpu.op_class_0::SimdFloatAdd                 0      0.00%     67.70% # Class of committed instruction
system.cpu.op_class_0::SimdFloatAlu                 0      0.00%     67.70% # Class of committed instruction
system.cpu.op_class_0::SimdFloatCmp                 0      0.00%     67.70% # Class of committed instruction
system.cpu.op_class_0::SimdFloatCvt                 0      0.00%     67.70% # Class of committed instruction
system.cpu.op_class_0::SimdFloatDiv                 0      0.00%     67.70% # Class of committed instruction
system.cpu.op_class_0::SimdFloatMisc           166465      0.15%     67.85% # Class of committed instruction
system.cpu.op_class_0::SimdFloatMult                0      0.00%     67.85% # Class of committed instruction
system.cpu.op_class_0::SimdFloatMultAcc             0      0.00%     67.85% # Class of committed instruction
system.cpu.op_class_0::SimdFloatSqrt                0      0.00%     67.85% # Class of committed instruction
system.cpu.op_class_0::SimdReduceAdd                0      0.00%     67.85% # Class of committed instruction
system.cpu.op_class_0::SimdReduceAlu                0      0.00%     67.85% # Class of committed instruction
system.cpu.op_class_0::SimdReduceCmp                0      0.00%     67.85% # Class of committed instruction
system.cpu.op_class_0::SimdFloatReduceAdd            0      0.00%     67.85% # Class of committed instruction
system.cpu.op_class_0::SimdFloatReduceCmp            0      0.00%     67.85% # Class of committed instruction
system.cpu.op_class_0::SimdAes                      0      0.00%     67.85% # Class of committed instruction
system.cpu.op_class_0::SimdAesMix                   0      0.00%     67.85% # Class of committed instruction
system.cpu.op_class_0::SimdSha1Hash                 0      0.00%     67.85% # Class of committed instruction
system.cpu.op_class_0::SimdSha1Hash2                0      0.00%     67.85% # Class of committed instruction
system.cpu.op_class_0::SimdSha256Hash               0      0.00%     67.85% # Class of committed instruction
system.cpu.op_class_0::SimdSha256Hash2              0      0.00%     67.85% # Class of committed instruction
system.cpu.op_class_0::SimdShaSigma2                0      0.00%     67.85% # Class of committed instruction
system.cpu.op_class_0::SimdShaSigma3                0      0.00%     67.85% # Class of committed instruction
system.cpu.op_class_0::SimdPredAlu                  0      0.00%     67.85% # Class of committed instruction
system.cpu.op_class_0::MemRead               20646465     18.87%     86.72% # Class of committed instruction
system.cpu.op_class_0::MemWrite              14534197     13.28%    100.00% # Class of committed instruction
system.cpu.op_class_0::FloatMemRead                 0      0.00%    100.00% # Class of committed instruction
system.cpu.op_class_0::FloatMemWrite                0      0.00%    100.00% # Class of committed instruction
system.cpu.op_class_0::IprAccess                    0      0.00%    100.00% # Class of committed instruction
system.cpu.op_class_0::InstPrefetch                 0      0.00%    100.00% # Class of committed instruction
system.cpu.op_class_0::total                109431937                       # Class of committed instruction
system.cpu.tickCycles                       111320244                       # Number of cycles that the object actually ticked
system.cpu.workload.numSyscalls                    86                       # Number of system calls
system.membus.snoop_filter.hit_multi_requests            0                       # Number of requests hitting in the snoop filter with multiple (>1) holders of the requested data.
system.membus.snoop_filter.hit_multi_snoops            0                       # Number of snoops hitting in the snoop filter with multiple (>1) holders of the requested data.
system.membus.snoop_filter.hit_single_requests        40262                       # Number of requests hitting in the snoop filter with a single holder of the requested data.
system.membus.snoop_filter.hit_single_snoops            0                       # Number of snoops hitting in the snoop filter with a single holder of the requested data.
system.membus.snoop_filter.tot_requests         89077                       # Total number of requests made to the snoop filter.
system.membus.snoop_filter.tot_snoops               0                       # Total number of snoops made to the snoop filter.
system.tol2bus.snoop_filter.hit_multi_requests         2056                       # Number of requests hitting in the snoop filter with multiple (>1) holders of the requested data.
system.tol2bus.snoop_filter.hit_multi_snoops           89                       # Number of snoops hitting in the snoop filter with multiple (>1) holders of the requested data.
system.tol2bus.snoop_filter.hit_single_requests       216550                       # Number of requests hitting in the snoop filter with a single holder of the requested data.
system.tol2bus.snoop_filter.hit_single_snoops         5444                       # Number of snoops hitting in the snoop filter with a single holder of the requested data.
system.tol2bus.snoop_filter.tot_requests       434048                       # Total number of requests made to the snoop filter.
system.tol2bus.snoop_filter.tot_snoops           5533                       # Total number of snoops made to the snoop filter.
system.membus.pwrStateResidencyTicks::UNDEFINED 117855815000                       # Cumulative time (in ticks) in various power states
system.membus.trans_dist::ReadResp              10076                       # Transaction distribution
system.membus.trans_dist::WritebackDirty        38614                       # Transaction distribution
system.membus.trans_dist::CleanEvict             1559                       # Transaction distribution
system.membus.trans_dist::ReadExReq             38828                       # Transaction distribution
system.membus.trans_dist::ReadExResp            38828                       # Transaction distribution
system.membus.trans_dist::ReadSharedReq         10076                       # Transaction distribution
system.membus.pkt_count_system.l2.mem_side::system.mem_ctrls.port       137981                       # Packet count per connected master and slave (bytes)
system.membus.pkt_count::total                 137981                       # Packet count per connected master and slave (bytes)
system.membus.pkt_size_system.l2.mem_side::system.mem_ctrls.port      5601152                       # Cumulative packet size per connected master and slave (bytes)
system.membus.pkt_size::total                 5601152                       # Cumulative packet size per connected master and slave (bytes)
system.membus.snoops                                0                       # Total snoops (count)
system.membus.snoopTraffic                          0                       # Total snoop traffic (bytes)
system.membus.snoop_fanout::samples             48904                       # Request fanout histogram
system.membus.snoop_fanout::mean                    0                       # Request fanout histogram
system.membus.snoop_fanout::stdev                   0                       # Request fanout histogram
system.membus.snoop_fanout::underflows              0      0.00%      0.00% # Request fanout histogram
system.membus.snoop_fanout::0                   48904    100.00%    100.00% # Request fanout histogram
system.membus.snoop_fanout::1                       0      0.00%    100.00% # Request fanout histogram
system.membus.snoop_fanout::overflows               0      0.00%    100.00% # Request fanout histogram
system.membus.snoop_fanout::min_value               0                       # Request fanout histogram
system.membus.snoop_fanout::max_value               0                       # Request fanout histogram
system.membus.snoop_fanout::total               48904                       # Request fanout histogram
system.membus.respLayer1.occupancy          264779750                       # Layer occupancy (ticks)
system.membus.respLayer1.utilization              0.2                       # Layer utilization (%)
system.membus.reqLayer0.occupancy           243533000                       # Layer occupancy (ticks)
system.membus.reqLayer0.utilization               0.2                       # Layer utilization (%)
system.tol2bus.pwrStateResidencyTicks::UNDEFINED 117855815000                       # Cumulative time (in ticks) in various power states
system.tol2bus.trans_dist::ReadResp            169919                       # Transaction distribution
system.tol2bus.trans_dist::WritebackDirty       155745                       # Transaction distribution
system.tol2bus.trans_dist::WritebackClean          758                       # Transaction distribution
system.tol2bus.trans_dist::CleanEvict          104700                       # Transaction distribution
system.tol2bus.trans_dist::ReadExReq            47583                       # Transaction distribution
system.tol2bus.trans_dist::ReadExResp           47583                       # Transaction distribution
system.tol2bus.trans_dist::ReadCleanReq          1202                       # Transaction distribution
system.tol2bus.trans_dist::ReadSharedReq       168717                       # Transaction distribution
system.tol2bus.pkt_count_system.cpu.icache.mem_side::system.l2.cpu_side         3162                       # Packet count per connected master and slave (bytes)
system.tol2bus.pkt_count_system.cpu.dcache.mem_side::system.l2.cpu_side       648388                       # Packet count per connected master and slave (bytes)
system.tol2bus.pkt_count::total                651550                       # Packet count per connected master and slave (bytes)
system.tol2bus.pkt_size_system.cpu.icache.mem_side::system.l2.cpu_side       125440                       # Cumulative packet size per connected master and slave (bytes)
system.tol2bus.pkt_size_system.cpu.dcache.mem_side::system.l2.cpu_side     21339584                       # Cumulative packet size per connected master and slave (bytes)
system.tol2bus.pkt_size::total               21465024                       # Cumulative packet size per connected master and slave (bytes)
system.tol2bus.snoops                           44657                       # Total snoops (count)
system.tol2bus.snoopTraffic                   2471296                       # Total snoop traffic (bytes)
system.tol2bus.snoop_fanout::samples           262159                       # Request fanout histogram
system.tol2bus.snoop_fanout::mean            0.029303                       # Request fanout histogram
system.tol2bus.snoop_fanout::stdev           0.170655                       # Request fanout histogram
system.tol2bus.snoop_fanout::underflows             0      0.00%      0.00% # Request fanout histogram
system.tol2bus.snoop_fanout::0                 254566     97.10%     97.10% # Request fanout histogram
system.tol2bus.snoop_fanout::1                   7504      2.86%     99.97% # Request fanout histogram
system.tol2bus.snoop_fanout::2                     89      0.03%    100.00% # Request fanout histogram
system.tol2bus.snoop_fanout::overflows              0      0.00%    100.00% # Request fanout histogram
system.tol2bus.snoop_fanout::min_value              0                       # Request fanout histogram
system.tol2bus.snoop_fanout::max_value              2                       # Request fanout histogram
system.tol2bus.snoop_fanout::total             262159                       # Request fanout histogram
system.tol2bus.reqLayer0.occupancy          669826000                       # Layer occupancy (ticks)
system.tol2bus.reqLayer0.utilization              0.6                       # Layer utilization (%)
system.tol2bus.respLayer1.occupancy         648904995                       # Layer occupancy (ticks)
system.tol2bus.respLayer1.utilization             0.6                       # Layer utilization (%)
system.tol2bus.respLayer0.occupancy           3606999                       # Layer occupancy (ticks)
system.tol2bus.respLayer0.utilization             0.0                       # Layer utilization (%)
system.voltage_domain.voltage                       1                       # Voltage in Volts
system.clk_domain.clock                          1000                       # Clock period in ticks
system.l2.pwrStateResidencyTicks::UNDEFINED 117855815000                       # Cumulative time (in ticks) in various power states
system.l2.demand_hits::.cpu.inst                  658                       # number of demand (read+write) hits
system.l2.demand_hits::.cpu.data               167934                       # number of demand (read+write) hits
system.l2.demand_hits::total                   168592                       # number of demand (read+write) hits
system.l2.overall_hits::.cpu.inst                 658                       # number of overall hits
system.l2.overall_hits::.cpu.data              167934                       # number of overall hits
system.l2.overall_hits::total                  168592                       # number of overall hits
system.l2.demand_misses::.cpu.inst                544                       # number of demand (read+write) misses
system.l2.demand_misses::.cpu.data              48366                       # number of demand (read+write) misses
system.l2.demand_misses::total                  48910                       # number of demand (read+write) misses
system.l2.overall_misses::.cpu.inst               544                       # number of overall misses
system.l2.overall_misses::.cpu.data             48366                       # number of overall misses
system.l2.overall_misses::total                 48910                       # number of overall misses
system.l2.demand_miss_latency::.cpu.inst     53118000                       # number of demand (read+write) miss cycles
system.l2.demand_miss_latency::.cpu.data   5094584000                       # number of demand (read+write) miss cycles
system.l2.demand_miss_latency::total       5147702000                       # number of demand (read+write) miss cycles
system.l2.overall_miss_latency::.cpu.inst     53118000                       # number of overall miss cycles
system.l2.overall_miss_latency::.cpu.data   5094584000                       # number of overall miss cycles
system.l2.overall_miss_latency::total      5147702000                       # number of overall miss cycles
system.l2.demand_accesses::.cpu.inst             1202                       # number of demand (read+write) accesses
system.l2.demand_accesses::.cpu.data           216300                       # number of demand (read+write) accesses
system.l2.demand_accesses::total               217502                       # number of demand (read+write) accesses
system.l2.overall_accesses::.cpu.inst            1202                       # number of overall (read+write) accesses
system.l2.overall_accesses::.cpu.data          216300                       # number of overall (read+write) accesses
system.l2.overall_accesses::total              217502                       # number of overall (read+write) accesses
system.l2.demand_miss_rate::.cpu.inst        0.452579                       # miss rate for demand accesses
system.l2.demand_miss_rate::.cpu.data        0.223606                       # miss rate for demand accesses
system.l2.demand_miss_rate::total            0.224871                       # miss rate for demand accesses
system.l2.overall_miss_rate::.cpu.inst       0.452579                       # miss rate for overall accesses
system.l2.overall_miss_rate::.cpu.data       0.223606                       # miss rate for overall accesses
system.l2.overall_miss_rate::total           0.224871                       # miss rate for overall accesses
system.l2.demand_avg_miss_latency::.cpu.inst 97643.382353                       # average overall miss latency
system.l2.demand_avg_miss_latency::.cpu.data 105333.994955                       # average overall miss latency
system.l2.demand_avg_miss_latency::total 105248.456348                       # average overall miss latency
system.l2.overall_avg_miss_latency::.cpu.inst 97643.382353                       # average overall miss latency
system.l2.overall_avg_miss_latency::.cpu.data 105333.994955                       # average overall miss latency
system.l2.overall_avg_miss_latency::total 105248.456348                       # average overall miss latency
system.l2.blocked_cycles::no_mshrs                  0                       # number of cycles access was blocked
system.l2.blocked_cycles::no_targets                0                       # number of cycles access was blocked
system.l2.blocked::no_mshrs                         0                       # number of cycles access was blocked
system.l2.blocked::no_targets                       0                       # number of cycles access was blocked
system.l2.avg_blocked_cycles::no_mshrs            nan                       # average number of cycles each access was blocked
system.l2.avg_blocked_cycles::no_targets          nan                       # average number of cycles each access was blocked
system.l2.writebacks::.writebacks               38614                       # number of writebacks
system.l2.writebacks::total                     38614                       # number of writebacks
system.l2.demand_mshr_hits::.cpu.inst               1                       # number of demand (read+write) MSHR hits
system.l2.demand_mshr_hits::.cpu.data               5                       # number of demand (read+write) MSHR hits
system.l2.demand_mshr_hits::total                   6                       # number of demand (read+write) MSHR hits
system.l2.overall_mshr_hits::.cpu.inst              1                       # number of overall MSHR hits
system.l2.overall_mshr_hits::.cpu.data              5                       # number of overall MSHR hits
system.l2.overall_mshr_hits::total                  6                       # number of overall MSHR hits
system.l2.demand_mshr_misses::.cpu.inst           543                       # number of demand (read+write) MSHR misses
system.l2.demand_mshr_misses::.cpu.data         48361                       # number of demand (read+write) MSHR misses
system.l2.demand_mshr_misses::total             48904                       # number of demand (read+write) MSHR misses
system.l2.overall_mshr_misses::.cpu.inst          543                       # number of overall MSHR misses
system.l2.overall_mshr_misses::.cpu.data        48361                       # number of overall MSHR misses
system.l2.overall_mshr_misses::total            48904                       # number of overall MSHR misses
system.l2.demand_mshr_miss_latency::.cpu.inst     42178000                       # number of demand (read+write) MSHR miss cycles
system.l2.demand_mshr_miss_latency::.cpu.data   4126956000                       # number of demand (read+write) MSHR miss cycles
system.l2.demand_mshr_miss_latency::total   4169134000                       # number of demand (read+write) MSHR miss cycles
system.l2.overall_mshr_miss_latency::.cpu.inst     42178000                       # number of overall MSHR miss cycles
system.l2.overall_mshr_miss_latency::.cpu.data   4126956000                       # number of overall MSHR miss cycles
system.l2.overall_mshr_miss_latency::total   4169134000                       # number of overall MSHR miss cycles
system.l2.demand_mshr_miss_rate::.cpu.inst     0.451747                       # mshr miss rate for demand accesses
system.l2.demand_mshr_miss_rate::.cpu.data     0.223583                       # mshr miss rate for demand accesses
system.l2.demand_mshr_miss_rate::total       0.224844                       # mshr miss rate for demand accesses
system.l2.overall_mshr_miss_rate::.cpu.inst     0.451747                       # mshr miss rate for overall accesses
system.l2.overall_mshr_miss_rate::.cpu.data     0.223583                       # mshr miss rate for overall accesses
system.l2.overall_mshr_miss_rate::total      0.224844                       # mshr miss rate for overall accesses
system.l2.demand_avg_mshr_miss_latency::.cpu.inst 77675.874770                       # average overall mshr miss latency
system.l2.demand_avg_mshr_miss_latency::.cpu.data 85336.448791                       # average overall mshr miss latency
system.l2.demand_avg_mshr_miss_latency::total 85251.390479                       # average overall mshr miss latency
system.l2.overall_avg_mshr_miss_latency::.cpu.inst 77675.874770                       # average overall mshr miss latency
system.l2.overall_avg_mshr_miss_latency::.cpu.data 85336.448791                       # average overall mshr miss latency
system.l2.overall_avg_mshr_miss_latency::total 85251.390479                       # average overall mshr miss latency
system.l2.replacements                          44657                       # number of replacements
system.l2.WritebackDirty_hits::.writebacks       117131                       # number of WritebackDirty hits
system.l2.WritebackDirty_hits::total           117131                       # number of WritebackDirty hits
system.l2.WritebackDirty_accesses::.writebacks       117131                       # number of WritebackDirty accesses(hits+misses)
system.l2.WritebackDirty_accesses::total       117131                       # number of WritebackDirty accesses(hits+misses)
system.l2.WritebackClean_hits::.writebacks          755                       # number of WritebackClean hits
system.l2.WritebackClean_hits::total              755                       # number of WritebackClean hits
system.l2.WritebackClean_accesses::.writebacks          755                       # number of WritebackClean accesses(hits+misses)
system.l2.WritebackClean_accesses::total          755                       # number of WritebackClean accesses(hits+misses)
system.l2.CleanEvict_mshr_misses::.writebacks         1049                       # number of CleanEvict MSHR misses
system.l2.CleanEvict_mshr_misses::total          1049                       # number of CleanEvict MSHR misses
system.l2.CleanEvict_mshr_miss_rate::.writebacks          inf                       # mshr miss rate for CleanEvict accesses
system.l2.CleanEvict_mshr_miss_rate::total          inf                       # mshr miss rate for CleanEvict accesses
system.l2.ReadExReq_hits::.cpu.data              8755                       # number of ReadExReq hits
system.l2.ReadExReq_hits::total                  8755                       # number of ReadExReq hits
system.l2.ReadExReq_misses::.cpu.data           38828                       # number of ReadExReq misses
system.l2.ReadExReq_misses::total               38828                       # number of ReadExReq misses
system.l2.ReadExReq_miss_latency::.cpu.data   4051207000                       # number of ReadExReq miss cycles
system.l2.ReadExReq_miss_latency::total    4051207000                       # number of ReadExReq miss cycles
system.l2.ReadExReq_accesses::.cpu.data         47583                       # number of ReadExReq accesses(hits+misses)
system.l2.ReadExReq_accesses::total             47583                       # number of ReadExReq accesses(hits+misses)
system.l2.ReadExReq_miss_rate::.cpu.data     0.816006                       # miss rate for ReadExReq accesses
system.l2.ReadExReq_miss_rate::total         0.816006                       # miss rate for ReadExReq accesses
system.l2.ReadExReq_avg_miss_latency::.cpu.data 104337.256619                       # average ReadExReq miss latency
system.l2.ReadExReq_avg_miss_latency::total 104337.256619                       # average ReadExReq miss latency
system.l2.ReadExReq_mshr_misses::.cpu.data        38828                       # number of ReadExReq MSHR misses
system.l2.ReadExReq_mshr_misses::total          38828                       # number of ReadExReq MSHR misses
system.l2.ReadExReq_mshr_miss_latency::.cpu.data   3274647000                       # number of ReadExReq MSHR miss cycles
system.l2.ReadExReq_mshr_miss_latency::total   3274647000                       # number of ReadExReq MSHR miss cycles
system.l2.ReadExReq_mshr_miss_rate::.cpu.data     0.816006                       # mshr miss rate for ReadExReq accesses
system.l2.ReadExReq_mshr_miss_rate::total     0.816006                       # mshr miss rate for ReadExReq accesses
system.l2.ReadExReq_avg_mshr_miss_latency::.cpu.data 84337.256619                       # average ReadExReq mshr miss latency
system.l2.ReadExReq_avg_mshr_miss_latency::total 84337.256619                       # average ReadExReq mshr miss latency
system.l2.ReadCleanReq_hits::.cpu.inst            658                       # number of ReadCleanReq hits
system.l2.ReadCleanReq_hits::total                658                       # number of ReadCleanReq hits
system.l2.ReadCleanReq_misses::.cpu.inst          544                       # number of ReadCleanReq misses
system.l2.ReadCleanReq_misses::total              544                       # number of ReadCleanReq misses
system.l2.ReadCleanReq_miss_latency::.cpu.inst     53118000                       # number of ReadCleanReq miss cycles
system.l2.ReadCleanReq_miss_latency::total     53118000                       # number of ReadCleanReq miss cycles
system.l2.ReadCleanReq_accesses::.cpu.inst         1202                       # number of ReadCleanReq accesses(hits+misses)
system.l2.ReadCleanReq_accesses::total           1202                       # number of ReadCleanReq accesses(hits+misses)
system.l2.ReadCleanReq_miss_rate::.cpu.inst     0.452579                       # miss rate for ReadCleanReq accesses
system.l2.ReadCleanReq_miss_rate::total      0.452579                       # miss rate for ReadCleanReq accesses
system.l2.ReadCleanReq_avg_miss_latency::.cpu.inst 97643.382353                       # average ReadCleanReq miss latency
system.l2.ReadCleanReq_avg_miss_latency::total 97643.382353                       # average ReadCleanReq miss latency
system.l2.ReadCleanReq_mshr_hits::.cpu.inst            1                       # number of ReadCleanReq MSHR hits
system.l2.ReadCleanReq_mshr_hits::total             1                       # number of ReadCleanReq MSHR hits
system.l2.ReadCleanReq_mshr_misses::.cpu.inst          543                       # number of ReadCleanReq MSHR misses
system.l2.ReadCleanReq_mshr_misses::total          543                       # number of ReadCleanReq MSHR misses
system.l2.ReadCleanReq_mshr_miss_latency::.cpu.inst     42178000                       # number of ReadCleanReq MSHR miss cycles
system.l2.ReadCleanReq_mshr_miss_latency::total     42178000                       # number of ReadCleanReq MSHR miss cycles
system.l2.ReadCleanReq_mshr_miss_rate::.cpu.inst     0.451747                       # mshr miss rate for ReadCleanReq accesses
system.l2.ReadCleanReq_mshr_miss_rate::total     0.451747                       # mshr miss rate for ReadCleanReq accesses
system.l2.ReadCleanReq_avg_mshr_miss_latency::.cpu.inst 77675.874770                       # average ReadCleanReq mshr miss latency
system.l2.ReadCleanReq_avg_mshr_miss_latency::total 77675.874770                       # average ReadCleanReq mshr miss latency
system.l2.ReadSharedReq_hits::.cpu.data        159179                       # number of ReadSharedReq hits
system.l2.ReadSharedReq_hits::total            159179                       # number of ReadSharedReq hits
system.l2.ReadSharedReq_misses::.cpu.data         9538                       # number of ReadSharedReq misses
system.l2.ReadSharedReq_misses::total            9538                       # number of ReadSharedReq misses
system.l2.ReadSharedReq_miss_latency::.cpu.data   1043377000                       # number of ReadSharedReq miss cycles
system.l2.ReadSharedReq_miss_latency::total   1043377000                       # number of ReadSharedReq miss cycles
system.l2.ReadSharedReq_accesses::.cpu.data       168717                       # number of ReadSharedReq accesses(hits+misses)
system.l2.ReadSharedReq_accesses::total        168717                       # number of ReadSharedReq accesses(hits+misses)
system.l2.ReadSharedReq_miss_rate::.cpu.data     0.056533                       # miss rate for ReadSharedReq accesses
system.l2.ReadSharedReq_miss_rate::total     0.056533                       # miss rate for ReadSharedReq accesses
system.l2.ReadSharedReq_avg_miss_latency::.cpu.data 109391.591529                       # average ReadSharedReq miss latency
system.l2.ReadSharedReq_avg_miss_latency::total 109391.591529                       # average ReadSharedReq miss latency
system.l2.ReadSharedReq_mshr_hits::.cpu.data            5                       # number of ReadSharedReq MSHR hits
system.l2.ReadSharedReq_mshr_hits::total            5                       # number of ReadSharedReq MSHR hits
system.l2.ReadSharedReq_mshr_misses::.cpu.data         9533                       # number of ReadSharedReq MSHR misses
system.l2.ReadSharedReq_mshr_misses::total         9533                       # number of ReadSharedReq MSHR misses
system.l2.ReadSharedReq_mshr_miss_latency::.cpu.data    852309000                       # number of ReadSharedReq MSHR miss cycles
system.l2.ReadSharedReq_mshr_miss_latency::total    852309000                       # number of ReadSharedReq MSHR miss cycles
system.l2.ReadSharedReq_mshr_miss_rate::.cpu.data     0.056503                       # mshr miss rate for ReadSharedReq accesses
system.l2.ReadSharedReq_mshr_miss_rate::total     0.056503                       # mshr miss rate for ReadSharedReq accesses
system.l2.ReadSharedReq_avg_mshr_miss_latency::.cpu.data 89406.168048                       # average ReadSharedReq mshr miss latency
system.l2.ReadSharedReq_avg_mshr_miss_latency::total 89406.168048                       # average ReadSharedReq mshr miss latency
system.l2.tags.pwrStateResidencyTicks::UNDEFINED 117855815000                       # Cumulative time (in ticks) in various power states
system.l2.tags.tagsinuse                  7909.399096                       # Cycle average of tags in use
system.l2.tags.total_refs                      430937                       # Total number of references to valid blocks.
system.l2.tags.sampled_refs                     52849                       # Sample count of references to valid blocks.
system.l2.tags.avg_refs                      8.154118                       # Average number of references to valid blocks.
system.l2.tags.warmup_cycle                     87000                       # Cycle when the warmup percentage was hit.
system.l2.tags.occ_blocks::.writebacks     225.598138                       # Average occupied blocks per requestor
system.l2.tags.occ_blocks::.cpu.inst        16.772775                       # Average occupied blocks per requestor
system.l2.tags.occ_blocks::.cpu.data      7667.028183                       # Average occupied blocks per requestor
system.l2.tags.occ_percent::.writebacks      0.027539                       # Average percentage of cache occupancy
system.l2.tags.occ_percent::.cpu.inst        0.002047                       # Average percentage of cache occupancy
system.l2.tags.occ_percent::.cpu.data        0.935917                       # Average percentage of cache occupancy
system.l2.tags.occ_percent::total            0.965503                       # Average percentage of cache occupancy
system.l2.tags.occ_task_id_blocks::1024          8192                       # Occupied blocks per task id
system.l2.tags.age_task_id_blocks_1024::0            2                       # Occupied blocks per task id
system.l2.tags.age_task_id_blocks_1024::1           20                       # Occupied blocks per task id
system.l2.tags.age_task_id_blocks_1024::2          237                       # Occupied blocks per task id
system.l2.tags.age_task_id_blocks_1024::3         2268                       # Occupied blocks per task id
system.l2.tags.age_task_id_blocks_1024::4         5665                       # Occupied blocks per task id
system.l2.tags.occ_task_id_percent::1024            1                       # Percentage of cache occupancy per task id
system.l2.tags.tag_accesses                    484841                       # Number of tag accesses
system.l2.tags.data_accesses                   484841                       # Number of data accesses
system.cpu_voltage_domain.voltage                   1                       # Voltage in Volts
system.mem_ctrls.pwrStateResidencyTicks::UNDEFINED 117855815000                       # Cumulative time (in ticks) in various power states
system.mem_ctrls.bytes_read::.cpu.inst          34752                       # Number of bytes read from this memory
system.mem_ctrls.bytes_read::.cpu.data        3095104                       # Number of bytes read from this memory
system.mem_ctrls.bytes_read::total            3129856                       # Number of bytes read from this memory
system.mem_ctrls.bytes_inst_read::.cpu.inst        34752                       # Number of instructions bytes read from this memory
system.mem_ctrls.bytes_inst_read::total         34752                       # Number of instructions bytes read from this memory
system.mem_ctrls.bytes_written::.writebacks      2471296                       # Number of bytes written to this memory
system.mem_ctrls.bytes_written::total         2471296                       # Number of bytes written to this memory
system.mem_ctrls.num_reads::.cpu.inst             543                       # Number of read requests responded to by this memory
system.mem_ctrls.num_reads::.cpu.data           48361                       # Number of read requests responded to by this memory
system.mem_ctrls.num_reads::total               48904                       # Number of read requests responded to by this memory
system.mem_ctrls.num_writes::.writebacks        38614                       # Number of write requests responded to by this memory
system.mem_ctrls.num_writes::total              38614                       # Number of write requests responded to by this memory
system.mem_ctrls.bw_read::.cpu.inst            294869                       # Total read bandwidth from this memory (bytes/s)
system.mem_ctrls.bw_read::.cpu.data          26261784                       # Total read bandwidth from this memory (bytes/s)
system.mem_ctrls.bw_read::total              26556653                       # Total read bandwidth from this memory (bytes/s)
system.mem_ctrls.bw_inst_read::.cpu.inst       294869                       # Instruction read bandwidth from this memory (bytes/s)
system.mem_ctrls.bw_inst_read::total           294869                       # Instruction read bandwidth from this memory (bytes/s)
system.mem_ctrls.bw_write::.writebacks       20968808                       # Write bandwidth from this memory (bytes/s)
system.mem_ctrls.bw_write::total             20968808                       # Write bandwidth from this memory (bytes/s)
system.mem_ctrls.bw_total::.writebacks       20968808                       # Total bandwidth to/from this memory (bytes/s)
system.mem_ctrls.bw_total::.cpu.inst           294869                       # Total bandwidth to/from this memory (bytes/s)
system.mem_ctrls.bw_total::.cpu.data         26261784                       # Total bandwidth to/from this memory (bytes/s)
system.mem_ctrls.bw_total::total             47525462                       # Total bandwidth to/from this memory (bytes/s)
system.mem_ctrls.avgPriority_.writebacks::samples     38578.00                       # Average QoS priority value for accepted requests
system.mem_ctrls.avgPriority_.cpu.inst::samples       543.00                       # Average QoS priority value for accepted requests
system.mem_ctrls.avgPriority_.cpu.data::samples     48282.00                       # Average QoS priority value for accepted requests
system.mem_ctrls.priorityMinLatency      0.000000018750                       # per QoS priority minimum request to response latency (s)
system.mem_ctrls.priorityMaxLatency      0.001508656500                       # per QoS priority maximum request to response latency (s)
system.mem_ctrls.numReadWriteTurnArounds         2167                       # Number of turnarounds from READ to WRITE
system.mem_ctrls.numWriteReadTurnArounds         2167                       # Number of turnarounds from WRITE to READ
system.mem_ctrls.numStayReadState              165846                       # Number of times bus staying in READ state
system.mem_ctrls.numStayWriteState              36447                       # Number of times bus staying in WRITE state
system.mem_ctrls.readReqs                       48904                       # Number of read requests accepted
system.mem_ctrls.writeReqs                      38614                       # Number of write requests accepted
system.mem_ctrls.readBursts                     48904                       # Number of DRAM read bursts, including those serviced by the write queue
system.mem_ctrls.writeBursts                    38614                       # Number of DRAM write bursts, including those merged in the write queue
system.mem_ctrls.servicedByWrQ                     79                       # Number of DRAM read bursts serviced by the write queue
system.mem_ctrls.mergedWrBursts                    36                       # Number of DRAM write bursts merged with an existing one
system.mem_ctrls.neitherReadNorWriteReqs            0                       # Number of requests that are neither read nor write
system.mem_ctrls.perBankRdBursts::0              3026                       # Per bank write bursts
system.mem_ctrls.perBankRdBursts::1              2842                       # Per bank write bursts
system.mem_ctrls.perBankRdBursts::2              2930                       # Per bank write bursts
system.mem_ctrls.perBankRdBursts::3              3613                       # Per bank write bursts
system.mem_ctrls.perBankRdBursts::4              3788                       # Per bank write bursts
system.mem_ctrls.perBankRdBursts::5              2930                       # Per bank write bursts
system.mem_ctrls.perBankRdBursts::6              2930                       # Per bank write bursts
system.mem_ctrls.perBankRdBursts::7              2927                       # Per bank write bursts
system.mem_ctrls.perBankRdBursts::8              2964                       # Per bank write bursts
system.mem_ctrls.perBankRdBursts::9              2955                       # Per bank write bursts
system.mem_ctrls.perBankRdBursts::10             2943                       # Per bank write bursts
system.mem_ctrls.perBankRdBursts::11             2985                       # Per bank write bursts
system.mem_ctrls.perBankRdBursts::12             3035                       # Per bank write bursts
system.mem_ctrls.perBankRdBursts::13             2949                       # Per bank write bursts
system.mem_ctrls.perBankRdBursts::14             3048                       # Per bank write bursts
system.mem_ctrls.perBankRdBursts::15             2960                       # Per bank write bursts
system.mem_ctrls.perBankWrBursts::0              2395                       # Per bank write bursts
system.mem_ctrls.perBankWrBursts::1              2295                       # Per bank write bursts
system.mem_ctrls.perBankWrBursts::2              2282                       # Per bank write bursts
system.mem_ctrls.perBankWrBursts::3              2473                       # Per bank write bursts
system.mem_ctrls.perBankWrBursts::4              2663                       # Per bank write bursts
system.mem_ctrls.perBankWrBursts::5              2398                       # Per bank write bursts
system.mem_ctrls.perBankWrBursts::6              2419                       # Per bank write bursts
system.mem_ctrls.perBankWrBursts::7              2390                       # Per bank write bursts
system.mem_ctrls.perBankWrBursts::8              2403                       # Per bank write bursts
system.mem_ctrls.perBankWrBursts::9              2387                       # Per bank write bursts
system.mem_ctrls.perBankWrBursts::10             2383                       # Per bank write bursts
system.mem_ctrls.perBankWrBursts::11             2414                       # Per bank write bursts
system.mem_ctrls.perBankWrBursts::12             2424                       # Per bank write bursts
system.mem_ctrls.perBankWrBursts::13             2397                       # Per bank write bursts
system.mem_ctrls.perBankWrBursts::14             2422                       # Per bank write bursts
system.mem_ctrls.perBankWrBursts::15             2415                       # Per bank write bursts
system.mem_ctrls.avgRdQLen                       1.06                       # Average read queue length when enqueuing
system.mem_ctrls.avgWrQLen                      24.53                       # Average write queue length when enqueuing
system.mem_ctrls.totQLat                    739873000                       # Total ticks spent queuing
system.mem_ctrls.totBusLat                  244125000                       # Total ticks spent in databus transfers
system.mem_ctrls.totMemAccLat              1655341750                       # Total ticks spent from burst creation until serviced by the DRAM
system.mem_ctrls.avgQLat                     15153.57                       # Average queueing delay per DRAM burst
system.mem_ctrls.avgBusLat                    5000.00                       # Average bus latency per DRAM burst
system.mem_ctrls.avgMemAccLat                33903.57                       # Average memory access latency per DRAM burst
system.mem_ctrls.numRdRetry                         0                       # Number of times read queue was full causing retry
system.mem_ctrls.numWrRetry                         0                       # Number of times write queue was full causing retry
system.mem_ctrls.readRowHits                    18527                       # Number of row buffer hits during reads
system.mem_ctrls.writeRowHits                   29280                       # Number of row buffer hits during writes
system.mem_ctrls.readRowHitRate                 37.95                       # Row buffer hit rate for reads
system.mem_ctrls.writeRowHitRate                75.90                       # Row buffer hit rate for writes
system.mem_ctrls.readPktSize::0                     0                       # Read request sizes (log2)
system.mem_ctrls.readPktSize::1                     0                       # Read request sizes (log2)
system.mem_ctrls.readPktSize::2                     0                       # Read request sizes (log2)
system.mem_ctrls.readPktSize::3                     0                       # Read request sizes (log2)
system.mem_ctrls.readPktSize::4                     0                       # Read request sizes (log2)
system.mem_ctrls.readPktSize::5                     0                       # Read request sizes (log2)
system.mem_ctrls.readPktSize::6                 48904                       # Read request sizes (log2)
system.mem_ctrls.writePktSize::0                    0                       # Write request sizes (log2)
system.mem_ctrls.writePktSize::1                    0                       # Write request sizes (log2)
system.mem_ctrls.writePktSize::2                    0                       # Write request sizes (log2)
system.mem_ctrls.writePktSize::3                    0                       # Write request sizes (log2)
system.mem_ctrls.writePktSize::4                    0                       # Write request sizes (log2)
system.mem_ctrls.writePktSize::5                    0                       # Write request sizes (log2)
system.mem_ctrls.writePktSize::6                38614                       # Write request sizes (log2)
system.mem_ctrls.rdQLenPdf::0                   46720                       # What read queue length does an incoming req see
system.mem_ctrls.rdQLenPdf::1                    2099                       # What read queue length does an incoming req see
system.mem_ctrls.rdQLenPdf::2                       6                       # What read queue length does an incoming req see
system.mem_ctrls.rdQLenPdf::3                       0                       # What read queue length does an incoming req see
system.mem_ctrls.rdQLenPdf::4                       0                       # What read queue length does an incoming req see
system.mem_ctrls.rdQLenPdf::5                       0                       # What read queue length does an incoming req see
system.mem_ctrls.rdQLenPdf::6                       0                       # What read queue length does an incoming req see
system.mem_ctrls.rdQLenPdf::7                       0                       # What read queue length does an incoming req see
system.mem_ctrls.rdQLenPdf::8                       0                       # What read queue length does an incoming req see
system.mem_ctrls.rdQLenPdf::9                       0                       # What read queue length does an incoming req see
system.mem_ctrls.rdQLenPdf::10                      0                       # What read queue length does an incoming req see
system.mem_ctrls.rdQLenPdf::11                      0                       # What read queue length does an incoming req see
system.mem_ctrls.rdQLenPdf::12                      0                       # What read queue length does an incoming req see
system.mem_ctrls.rdQLenPdf::13                      0                       # What read queue length does an incoming req see
system.mem_ctrls.rdQLenPdf::14                      0                       # What read queue length does an incoming req see
system.mem_ctrls.rdQLenPdf::15                      0                       # What read queue length does an incoming req see
system.mem_ctrls.rdQLenPdf::16                      0                       # What read queue length does an incoming req see
system.mem_ctrls.rdQLenPdf::17                      0                       # What read queue length does an incoming req see
system.mem_ctrls.rdQLenPdf::18                      0                       # What read queue length does an incoming req see
system.mem_ctrls.rdQLenPdf::19                      0                       # What read queue length does an incoming req see
system.mem_ctrls.rdQLenPdf::20                      0                       # What read queue length does an incoming req see
system.mem_ctrls.rdQLenPdf::21                      0                       # What read queue length does an incoming req see
system.mem_ctrls.rdQLenPdf::22                      0                       # What read queue length does an incoming req see
system.mem_ctrls.rdQLenPdf::23                      0                       # What read queue length does an incoming req see
system.mem_ctrls.rdQLenPdf::24                      0                       # What read queue length does an incoming req see
system.mem_ctrls.rdQLenPdf::25                      0                       # What read queue length does an incoming req see
system.mem_ctrls.rdQLenPdf::26                      0                       # What read queue length does an incoming req see
system.mem_ctrls.rdQLenPdf::27                      0                       # What read queue length does an incoming req see
system.mem_ctrls.rdQLenPdf::28                      0                       # What read queue length does an incoming req see
system.mem_ctrls.rdQLenPdf::29                      0                       # What read queue length does an incoming req see
system.mem_ctrls.rdQLenPdf::30                      0                       # What read queue length does an incoming req see
system.mem_ctrls.rdQLenPdf::31                      0                       # What read queue length does an incoming req see
system.mem_ctrls.wrQLenPdf::0                       1                       # What write queue length does an incoming req see
system.mem_ctrls.wrQLenPdf::1                       1                       # What write queue length does an incoming req see
system.mem_ctrls.wrQLenPdf::2                       1                       # What write queue length does an incoming req see
system.mem_ctrls.wrQLenPdf::3                       1                       # What write queue length does an incoming req see
system.mem_ctrls.wrQLenPdf::4                       1                       # What write queue length does an incoming req see
system.mem_ctrls.wrQLenPdf::5                       1                       # What write queue length does an incoming req see
system.mem_ctrls.wrQLenPdf::6                       1                       # What write queue length does an incoming req see
system.mem_ctrls.wrQLenPdf::7                       1                       # What write queue length does an incoming req see
system.mem_ctrls.wrQLenPdf::8                       1                       # What write queue length does an incoming req see
system.mem_ctrls.wrQLenPdf::9                       1                       # What write queue length does an incoming req see
system.mem_ctrls.wrQLenPdf::10                      1                       # What write queue length does an incoming req see
system.mem_ctrls.wrQLenPdf::11                      1                       # What write queue length does an incoming req see
system.mem_ctrls.wrQLenPdf::12                      1                       # What write queue length does an incoming req see
system.mem_ctrls.wrQLenPdf::13                      1                       # What write queue length does an incoming req see
system.mem_ctrls.wrQLenPdf::14                      1                       # What write queue length does an incoming req see
system.mem_ctrls.wrQLenPdf::15                   1830                       # What write queue length does an incoming req see
system.mem_ctrls.wrQLenPdf::16                   1835                       # What write queue length does an incoming req see
system.mem_ctrls.wrQLenPdf::17                   2168                       # What write queue length does an incoming req see
system.mem_ctrls.wrQLenPdf::18                   2173                       # What write queue length does an incoming req see
system.mem_ctrls.wrQLenPdf::19                   2174                       # What write queue length does an incoming req see
system.mem_ctrls.wrQLenPdf::20                   2187                       # What write queue length does an incoming req see
system.mem_ctrls.wrQLenPdf::21                   2192                       # What write queue length does an incoming req see
system.mem_ctrls.wrQLenPdf::22                   2201                       # What write queue length does an incoming req see
system.mem_ctrls.wrQLenPdf::23                   2197                       # What write queue length does an incoming req see
system.mem_ctrls.wrQLenPdf::24                   2176                       # What write queue length does an incoming req see
system.mem_ctrls.wrQLenPdf::25                   2182                       # What write queue length does an incoming req see
system.mem_ctrls.wrQLenPdf::26                   2171                       # What write queue length does an incoming req see
system.mem_ctrls.wrQLenPdf::27                   2203                       # What write queue length does an incoming req see
system.mem_ctrls.wrQLenPdf::28                   2192                       # What write queue length does an incoming req see
system.mem_ctrls.wrQLenPdf::29                   2177                       # What write queue length does an incoming req see
system.mem_ctrls.wrQLenPdf::30                   2169                       # What write queue length does an incoming req see
system.mem_ctrls.wrQLenPdf::31                   2167                       # What write queue length does an incoming req see
system.mem_ctrls.wrQLenPdf::32                   2167                       # What write queue length does an incoming req see
system.mem_ctrls.wrQLenPdf::33                      2                       # What write queue length does an incoming req see
system.mem_ctrls.wrQLenPdf::34                      0                       # What write queue length does an incoming req see
system.mem_ctrls.wrQLenPdf::35                      0                       # What write queue length does an incoming req see
system.mem_ctrls.wrQLenPdf::36                      0                       # What write queue length does an incoming req see
system.mem_ctrls.wrQLenPdf::37                      0                       # What write queue length does an incoming req see
system.mem_ctrls.wrQLenPdf::38                      0                       # What write queue length does an incoming req see
system.mem_ctrls.wrQLenPdf::39                      0                       # What write queue length does an incoming req see
system.mem_ctrls.wrQLenPdf::40                      0                       # What write queue length does an incoming req see
system.mem_ctrls.wrQLenPdf::41                      0                       # What write queue length does an incoming req see
system.mem_ctrls.wrQLenPdf::42                      0                       # What write queue length does an incoming req see
system.mem_ctrls.wrQLenPdf::43                      0                       # What write queue length does an incoming req see
system.mem_ctrls.wrQLenPdf::44                      0                       # What write queue length does an incoming req see
system.mem_ctrls.wrQLenPdf::45                      0                       # What write queue length does an incoming req see
system.mem_ctrls.wrQLenPdf::46                      0                       # What write queue length does an incoming req see
system.mem_ctrls.wrQLenPdf::47                      0                       # What write queue length does an incoming req see
system.mem_ctrls.wrQLenPdf::48                      0                       # What write queue length does an incoming req see
system.mem_ctrls.wrQLenPdf::49                      0                       # What write queue length does an incoming req see
system.mem_ctrls.wrQLenPdf::50                      0                       # What write queue length does an incoming req see
system.mem_ctrls.wrQLenPdf::51                      0                       # What write queue length does an incoming req see
system.mem_ctrls.wrQLenPdf::52                      0                       # What write queue length does an incoming req see
system.mem_ctrls.wrQLenPdf::53                      0                       # What write queue length does an incoming req see
system.mem_ctrls.wrQLenPdf::54                      0                       # What write queue length does an incoming req see
system.mem_ctrls.wrQLenPdf::55                      0                       # What write queue length does an incoming req see
system.mem_ctrls.wrQLenPdf::56                      0                       # What write queue length does an incoming req see
system.mem_ctrls.wrQLenPdf::57                      0                       # What write queue length does an incoming req see
system.mem_ctrls.wrQLenPdf::58                      0                       # What write queue length does an incoming req see
system.mem_ctrls.wrQLenPdf::59                      0                       # What write queue length does an incoming req see
system.mem_ctrls.wrQLenPdf::60                      0                       # What write queue length does an incoming req see
system.mem_ctrls.wrQLenPdf::61                      0                       # What write queue length does an incoming req see
system.mem_ctrls.wrQLenPdf::62                      0                       # What write queue length does an incoming req see
system.mem_ctrls.wrQLenPdf::63                      0                       # What write queue length does an incoming req see
system.mem_ctrls.bytesPerActivate::samples        39577                       # Bytes accessed per row activation
system.mem_ctrls.bytesPerActivate::mean    141.308740                       # Bytes accessed per row activation
system.mem_ctrls.bytesPerActivate::gmean   102.396777                       # Bytes accessed per row activation
system.mem_ctrls.bytesPerActivate::stdev   172.564317                       # Bytes accessed per row activation
system.mem_ctrls.bytesPerActivate::0-127        22727     57.42%     57.42% # Bytes accessed per row activation
system.mem_ctrls.bytesPerActivate::128-255        12380     31.28%     88.71% # Bytes accessed per row activation
system.mem_ctrls.bytesPerActivate::256-383         2163      5.47%     94.17% # Bytes accessed per row activation
system.mem_ctrls.bytesPerActivate::384-511          389      0.98%     95.15% # Bytes accessed per row activation
system.mem_ctrls.bytesPerActivate::512-639          323      0.82%     95.97% # Bytes accessed per row activation
system.mem_ctrls.bytesPerActivate::640-767          310      0.78%     96.75% # Bytes accessed per row activation
system.mem_ctrls.bytesPerActivate::768-895          329      0.83%     97.58% # Bytes accessed per row activation
system.mem_ctrls.bytesPerActivate::896-1023          436      1.10%     98.69% # Bytes accessed per row activation
system.mem_ctrls.bytesPerActivate::1024-1151          520      1.31%    100.00% # Bytes accessed per row activation
system.mem_ctrls.bytesPerActivate::total        39577                       # Bytes accessed per row activation
system.mem_ctrls.rdPerTurnAround::samples         2167                       # Reads before turning the bus around for writes
system.mem_ctrls.rdPerTurnAround::mean      22.529765                       # Reads before turning the bus around for writes
system.mem_ctrls.rdPerTurnAround::gmean     20.343440                       # Reads before turning the bus around for writes
system.mem_ctrls.rdPerTurnAround::stdev     30.013384                       # Reads before turning the bus around for writes
system.mem_ctrls.rdPerTurnAround::0-63           2145     98.98%     98.98% # Reads before turning the bus around for writes
system.mem_ctrls.rdPerTurnAround::64-127           21      0.97%     99.95% # Reads before turning the bus around for writes
[...]
system.cpu.icache.tags.occ_percent::total     0.433183                       # Average percentage of cache occupancy
system.cpu.icache.tags.occ_task_id_blocks::1024          444                       # Occupied blocks per task id
system.cpu.icache.tags.age_task_id_blocks_1024::3            5                       # Occupied blocks per task id
system.cpu.icache.tags.age_task_id_blocks_1024::4          439                       # Occupied blocks per task id
system.cpu.icache.tags.occ_task_id_percent::1024     0.433594                       # Percentage of cache occupancy per task id
system.cpu.icache.tags.tag_accesses          28720730                       # Number of tag accesses
system.cpu.icache.tags.data_accesses         28720730                       # Number of data accesses
system.cpu.dtb.walker.pwrStateResidencyTicks::UNDEFINED 117855815000                       # Cumulative time (in ticks) in various power states
system.cpu.dtb.stage2_mmu.stage2_tlb.walker.pwrStateResidencyTicks::UNDEFINED 117855815000                       # Cumulative time (in ticks) in various power states
system.cpu.dcache.pwrStateResidencyTicks::UNDEFINED 117855815000                       # Cumulative time (in ticks) in various power states
system.cpu.dcache.demand_hits::.cpu.data     35487802                       # number of demand (read+write) hits
system.cpu.dcache.demand_hits::total         35487802                       # number of demand (read+write) hits
system.cpu.dcache.overall_hits::.cpu.data     35491064                       # number of overall hits
system.cpu.dcache.overall_hits::total        35491064                       # number of overall hits
system.cpu.dcache.demand_misses::.cpu.data       249491                       # number of demand (read+write) misses
system.cpu.dcache.demand_misses::total         249491                       # number of demand (read+write) misses
system.cpu.dcache.overall_misses::.cpu.data       249590                       # number of overall misses
system.cpu.dcache.overall_misses::total        249590                       # number of overall misses
system.cpu.dcache.demand_miss_latency::.cpu.data  11570292000                       # number of demand (read+write) miss cycles
system.cpu.dcache.demand_miss_latency::total  11570292000                       # number of demand (read+write) miss cycles
system.cpu.dcache.overall_miss_latency::.cpu.data  11570292000                       # number of overall miss cycles
system.cpu.dcache.overall_miss_latency::total  11570292000                       # number of overall miss cycles
system.cpu.dcache.demand_accesses::.cpu.data     35737293                       # number of demand (read+write) accesses
system.cpu.dcache.demand_accesses::total     35737293                       # number of demand (read+write) accesses
system.cpu.dcache.overall_accesses::.cpu.data     35740654                       # number of overall (read+write) accesses
system.cpu.dcache.overall_accesses::total     35740654                       # number of overall (read+write) accesses
system.cpu.dcache.demand_miss_rate::.cpu.data     0.006981                       # miss rate for demand accesses
system.cpu.dcache.demand_miss_rate::total     0.006981                       # miss rate for demand accesses
system.cpu.dcache.overall_miss_rate::.cpu.data     0.006983                       # miss rate for overall accesses
system.cpu.dcache.overall_miss_rate::total     0.006983                       # miss rate for overall accesses
system.cpu.dcache.demand_avg_miss_latency::.cpu.data 46375.588699                       # average overall miss latency
system.cpu.dcache.demand_avg_miss_latency::total 46375.588699                       # average overall miss latency
system.cpu.dcache.overall_avg_miss_latency::.cpu.data 46357.193798                       # average overall miss latency
system.cpu.dcache.overall_avg_miss_latency::total 46357.193798                       # average overall miss latency
system.cpu.dcache.blocked_cycles::no_mshrs            0                       # number of cycles access was blocked
system.cpu.dcache.blocked_cycles::no_targets            0                       # number of cycles access was blocked
system.cpu.dcache.blocked::no_mshrs                 0                       # number of cycles access was blocked
system.cpu.dcache.blocked::no_targets               0                       # number of cycles access was blocked
system.cpu.dcache.avg_blocked_cycles::no_mshrs          nan                       # average number of cycles each access was blocked
system.cpu.dcache.avg_blocked_cycles::no_targets          nan                       # average number of cycles each access was blocked
system.cpu.dcache.writebacks::.writebacks       117131                       # number of writebacks
system.cpu.dcache.writebacks::total            117131                       # number of writebacks
system.cpu.dcache.demand_mshr_hits::.cpu.data        33286                       # number of demand (read+write) MSHR hits
system.cpu.dcache.demand_mshr_hits::total        33286                       # number of demand (read+write) MSHR hits
system.cpu.dcache.overall_mshr_hits::.cpu.data        33286                       # number of overall MSHR hits
system.cpu.dcache.overall_mshr_hits::total        33286                       # number of overall MSHR hits
system.cpu.dcache.demand_mshr_misses::.cpu.data       216205                       # number of demand (read+write) MSHR misses
system.cpu.dcache.demand_mshr_misses::total       216205                       # number of demand (read+write) MSHR misses
system.cpu.dcache.overall_mshr_misses::.cpu.data       216299                       # number of overall MSHR misses
system.cpu.dcache.overall_mshr_misses::total       216299                       # number of overall MSHR misses
system.cpu.dcache.demand_mshr_miss_latency::.cpu.data   9345236000                       # number of demand (read+write) MSHR miss cycles
system.cpu.dcache.demand_mshr_miss_latency::total   9345236000                       # number of demand (read+write) MSHR miss cycles
system.cpu.dcache.overall_mshr_miss_latency::.cpu.data   9349800000                       # number of overall MSHR miss cycles
system.cpu.dcache.overall_mshr_miss_latency::total   9349800000                       # number of overall MSHR miss cycles
system.cpu.dcache.demand_mshr_miss_rate::.cpu.data     0.006050                       # mshr miss rate for demand accesses
system.cpu.dcache.demand_mshr_miss_rate::total     0.006050                       # mshr miss rate for demand accesses
system.cpu.dcache.overall_mshr_miss_rate::.cpu.data     0.006052                       # mshr miss rate for overall accesses
system.cpu.dcache.overall_mshr_miss_rate::total     0.006052                       # mshr miss rate for overall accesses
system.cpu.dcache.demand_avg_mshr_miss_latency::.cpu.data 43223.958743                       # average overall mshr miss latency
system.cpu.dcache.demand_avg_mshr_miss_latency::total 43223.958743                       # average overall mshr miss latency
system.cpu.dcache.overall_avg_mshr_miss_latency::.cpu.data 43226.274740                       # average overall mshr miss latency
system.cpu.dcache.overall_avg_mshr_miss_latency::total 43226.274740                       # average overall mshr miss latency
system.cpu.dcache.replacements                 215788                       # number of replacements
system.cpu.dcache.ReadReq_hits::.cpu.data     21303636                       # number of ReadReq hits
system.cpu.dcache.ReadReq_hits::total        21303636                       # number of ReadReq hits
system.cpu.dcache.ReadReq_misses::.cpu.data       178906                       # number of ReadReq misses
system.cpu.dcache.ReadReq_misses::total        178906                       # number of ReadReq misses
system.cpu.dcache.ReadReq_miss_latency::.cpu.data   5660299000                       # number of ReadReq miss cycles
system.cpu.dcache.ReadReq_miss_latency::total   5660299000                       # number of ReadReq miss cycles
system.cpu.dcache.ReadReq_accesses::.cpu.data     21482542                       # number of ReadReq accesses(hits+misses)
system.cpu.dcache.ReadReq_accesses::total     21482542                       # number of ReadReq accesses(hits+misses)
system.cpu.dcache.ReadReq_miss_rate::.cpu.data     0.008328                       # miss rate for ReadReq accesses
system.cpu.dcache.ReadReq_miss_rate::total     0.008328                       # miss rate for ReadReq accesses
system.cpu.dcache.ReadReq_avg_miss_latency::.cpu.data 31638.396700                       # average ReadReq miss latency
system.cpu.dcache.ReadReq_avg_miss_latency::total 31638.396700                       # average ReadReq miss latency
system.cpu.dcache.ReadReq_mshr_hits::.cpu.data        10283                       # number of ReadReq MSHR hits
system.cpu.dcache.ReadReq_mshr_hits::total        10283                       # number of ReadReq MSHR hits
system.cpu.dcache.ReadReq_mshr_misses::.cpu.data       168623                       # number of ReadReq MSHR misses
system.cpu.dcache.ReadReq_mshr_misses::total       168623                       # number of ReadReq MSHR misses
system.cpu.dcache.ReadReq_mshr_miss_latency::.cpu.data   4931252000                       # number of ReadReq MSHR miss cycles
system.cpu.dcache.ReadReq_mshr_miss_latency::total   4931252000                       # number of ReadReq MSHR miss cycles
system.cpu.dcache.ReadReq_mshr_miss_rate::.cpu.data     0.007849                       # mshr miss rate for ReadReq accesses
system.cpu.dcache.ReadReq_mshr_miss_rate::total     0.007849                       # mshr miss rate for ReadReq accesses
system.cpu.dcache.ReadReq_avg_mshr_miss_latency::.cpu.data 29244.243075                       # average ReadReq mshr miss latency
system.cpu.dcache.ReadReq_avg_mshr_miss_latency::total 29244.243075                       # average ReadReq mshr miss latency
system.cpu.dcache.WriteReq_hits::.cpu.data     14184166                       # number of WriteReq hits
system.cpu.dcache.WriteReq_hits::total       14184166                       # number of WriteReq hits
system.cpu.dcache.WriteReq_misses::.cpu.data        70585                       # number of WriteReq misses
system.cpu.dcache.WriteReq_misses::total        70585                       # number of WriteReq misses
system.cpu.dcache.WriteReq_miss_latency::.cpu.data   5909993000                       # number of WriteReq miss cycles
system.cpu.dcache.WriteReq_miss_latency::total   5909993000                       # number of WriteReq miss cycles
system.cpu.dcache.WriteReq_accesses::.cpu.data     14254751                       # number of WriteReq accesses(hits+misses)
system.cpu.dcache.WriteReq_accesses::total     14254751                       # number of WriteReq accesses(hits+misses)
system.cpu.dcache.WriteReq_miss_rate::.cpu.data     0.004952                       # miss rate for WriteReq accesses
system.cpu.dcache.WriteReq_miss_rate::total     0.004952                       # miss rate for WriteReq accesses
system.cpu.dcache.WriteReq_avg_miss_latency::.cpu.data 83728.738401                       # average WriteReq miss latency
system.cpu.dcache.WriteReq_avg_miss_latency::total 83728.738401                       # average WriteReq miss latency
system.cpu.dcache.WriteReq_mshr_hits::.cpu.data        23003                       # number of WriteReq MSHR hits
system.cpu.dcache.WriteReq_mshr_hits::total        23003                       # number of WriteReq MSHR hits
system.cpu.dcache.WriteReq_mshr_misses::.cpu.data        47582                       # number of WriteReq MSHR misses
system.cpu.dcache.WriteReq_mshr_misses::total        47582                       # number of WriteReq MSHR misses
system.cpu.dcache.WriteReq_mshr_miss_latency::.cpu.data   4413984000                       # number of WriteReq MSHR miss cycles
system.cpu.dcache.WriteReq_mshr_miss_latency::total   4413984000                       # number of WriteReq MSHR miss cycles
system.cpu.dcache.WriteReq_mshr_miss_rate::.cpu.data     0.003338                       # mshr miss rate for WriteReq accesses
system.cpu.dcache.WriteReq_mshr_miss_rate::total     0.003338                       # mshr miss rate for WriteReq accesses
system.cpu.dcache.WriteReq_avg_mshr_miss_latency::.cpu.data 92765.835820                       # average WriteReq mshr miss latency
system.cpu.dcache.WriteReq_avg_mshr_miss_latency::total 92765.835820                       # average WriteReq mshr miss latency
system.cpu.dcache.SoftPFReq_hits::.cpu.data         3262                       # number of SoftPFReq hits
system.cpu.dcache.SoftPFReq_hits::total          3262                       # number of SoftPFReq hits
system.cpu.dcache.SoftPFReq_misses::.cpu.data           99                       # number of SoftPFReq misses
system.cpu.dcache.SoftPFReq_misses::total           99                       # number of SoftPFReq misses
system.cpu.dcache.SoftPFReq_accesses::.cpu.data         3361                       # number of SoftPFReq accesses(hits+misses)
system.cpu.dcache.SoftPFReq_accesses::total         3361                       # number of SoftPFReq accesses(hits+misses)
system.cpu.dcache.SoftPFReq_miss_rate::.cpu.data     0.029456                       # miss rate for SoftPFReq accesses
system.cpu.dcache.SoftPFReq_miss_rate::total     0.029456                       # miss rate for SoftPFReq accesses
system.cpu.dcache.SoftPFReq_mshr_misses::.cpu.data           94                       # number of SoftPFReq MSHR misses
system.cpu.dcache.SoftPFReq_mshr_misses::total           94                       # number of SoftPFReq MSHR misses
system.cpu.dcache.SoftPFReq_mshr_miss_latency::.cpu.data      4564000                       # number of SoftPFReq MSHR miss cycles
system.cpu.dcache.SoftPFReq_mshr_miss_latency::total      4564000                       # number of SoftPFReq MSHR miss cycles
system.cpu.dcache.SoftPFReq_mshr_miss_rate::.cpu.data     0.027968                       # mshr miss rate for SoftPFReq accesses
system.cpu.dcache.SoftPFReq_mshr_miss_rate::total     0.027968                       # mshr miss rate for SoftPFReq accesses
system.cpu.dcache.SoftPFReq_avg_mshr_miss_latency::.cpu.data 48553.191489                       # average SoftPFReq mshr miss latency
system.cpu.dcache.SoftPFReq_avg_mshr_miss_latency::total 48553.191489                       # average SoftPFReq mshr miss latency
system.cpu.dcache.LoadLockedReq_hits::.cpu.data        89081                       # number of LoadLockedReq hits
system.cpu.dcache.LoadLockedReq_hits::total        89081                       # number of LoadLockedReq hits
system.cpu.dcache.LoadLockedReq_misses::.cpu.data            1                       # number of LoadLockedReq misses
system.cpu.dcache.LoadLockedReq_misses::total            1                       # number of LoadLockedReq misses
system.cpu.dcache.LoadLockedReq_miss_latency::.cpu.data        26000                       # number of LoadLockedReq miss cycles
system.cpu.dcache.LoadLockedReq_miss_latency::total        26000                       # number of LoadLockedReq miss cycles
system.cpu.dcache.LoadLockedReq_accesses::.cpu.data        89082                       # number of LoadLockedReq accesses(hits+misses)
system.cpu.dcache.LoadLockedReq_accesses::total        89082                       # number of LoadLockedReq accesses(hits+misses)
system.cpu.dcache.LoadLockedReq_miss_rate::.cpu.data     0.000011                       # miss rate for LoadLockedReq accesses
system.cpu.dcache.LoadLockedReq_miss_rate::total     0.000011                       # miss rate for LoadLockedReq accesses
system.cpu.dcache.LoadLockedReq_avg_miss_latency::.cpu.data        26000                       # average LoadLockedReq miss latency
system.cpu.dcache.LoadLockedReq_avg_miss_latency::total        26000                       # average LoadLockedReq miss latency
system.cpu.dcache.LoadLockedReq_mshr_misses::.cpu.data            1                       # number of LoadLockedReq MSHR misses
system.cpu.dcache.LoadLockedReq_mshr_misses::total            1                       # number of LoadLockedReq MSHR misses
system.cpu.dcache.LoadLockedReq_mshr_miss_latency::.cpu.data        24000                       # number of LoadLockedReq MSHR miss cycles
system.cpu.dcache.LoadLockedReq_mshr_miss_latency::total        24000                       # number of LoadLockedReq MSHR miss cycles
system.cpu.dcache.LoadLockedReq_mshr_miss_rate::.cpu.data     0.000011                       # mshr miss rate for LoadLockedReq accesses
system.cpu.dcache.LoadLockedReq_mshr_miss_rate::total     0.000011                       # mshr miss rate for LoadLockedReq accesses
system.cpu.dcache.LoadLockedReq_avg_mshr_miss_latency::.cpu.data        24000                       # average LoadLockedReq mshr miss latency
system.cpu.dcache.LoadLockedReq_avg_mshr_miss_latency::total        24000                       # average LoadLockedReq mshr miss latency
system.cpu.dcache.StoreCondReq_hits::.cpu.data        89082                       # number of StoreCondReq hits
system.cpu.dcache.StoreCondReq_hits::total        89082                       # number of StoreCondReq hits
system.cpu.dcache.StoreCondReq_accesses::.cpu.data        89082                       # number of StoreCondReq accesses(hits+misses)
system.cpu.dcache.StoreCondReq_accesses::total        89082                       # number of StoreCondReq accesses(hits+misses)
system.cpu.dcache.tags.pwrStateResidencyTicks::UNDEFINED 117855815000                       # Cumulative time (in ticks) in various power states
system.cpu.dcache.tags.tagsinuse           511.003185                       # Cycle average of tags in use
system.cpu.dcache.tags.total_refs            35885527                       # Total number of references to valid blocks.
system.cpu.dcache.tags.sampled_refs            216300                       # Sample count of references to valid blocks.
system.cpu.dcache.tags.avg_refs            165.906274                       # Average number of references to valid blocks.
system.cpu.dcache.tags.warmup_cycle            240000                       # Cycle when the warmup percentage was hit.
system.cpu.dcache.tags.occ_blocks::.cpu.data   511.003185                       # Average occupied blocks per requestor
system.cpu.dcache.tags.occ_percent::.cpu.data     0.998053                       # Average percentage of cache occupancy
system.cpu.dcache.tags.occ_percent::total     0.998053                       # Average percentage of cache occupancy
system.cpu.dcache.tags.occ_task_id_blocks::1024          512                       # Occupied blocks per task id
system.cpu.dcache.tags.age_task_id_blocks_1024::0            6                       # Occupied blocks per task id
system.cpu.dcache.tags.age_task_id_blocks_1024::1           35                       # Occupied blocks per task id
system.cpu.dcache.tags.age_task_id_blocks_1024::2          221                       # Occupied blocks per task id
system.cpu.dcache.tags.age_task_id_blocks_1024::3          250                       # Occupied blocks per task id
system.cpu.dcache.tags.occ_task_id_percent::1024            1                       # Percentage of cache occupancy per task id
system.cpu.dcache.tags.tag_accesses          36135118                       # Number of tag accesses
system.cpu.dcache.tags.data_accesses         36135118                       # Number of data accesses
system.cpu.itb.walker.pwrStateResidencyTicks::UNDEFINED 117855815000                       # Cumulative time (in ticks) in various power states
system.cpu.itb.stage2_mmu.stage2_tlb.walker.pwrStateResidencyTicks::UNDEFINED 117855815000                       # Cumulative time (in ticks) in various power states

---------- End Simulation Statistics   ----------
