
---------- Begin Simulation Statistics ----------
final_tick                               172187742000                       # Number of ticks from beginning of simulation (restored from checkpoints and never reset)
host_inst_rate                                 332224                       # Simulator instruction rate (inst/s)
host_mem_usage                                 684800                       # Number of bytes of host memory used
host_op_rate                                   332876                       # Simulator op (including micro ops) rate (op/s)
host_seconds                                   301.00                       # Real time elapsed on the host
host_tick_rate                              572048469                       # Simulator tick rate (ticks/s)
sim_freq                                 1000000000000                       # Frequency of simulated ticks
sim_insts                                   100000001                       # Number of instructions simulated
sim_ops                                     100196363                       # Number of ops (including micro ops) simulated
sim_seconds                                  0.172188                       # Number of seconds simulated
sim_ticks                                172187742000                       # Number of ticks simulated
system.cpu.branchPred.BTBCorrect                    0                       # Number of correct BTB predictions (this stat may not work properly.
system.cpu.branchPred.BTBHitPct             99.693800                       # BTB Hit Percentage
system.cpu.branchPred.BTBHits                 2095458                       # Number of BTB hits
system.cpu.branchPred.BTBLookups              2101894                       # Number of BTB lookups
system.cpu.branchPred.RASInCorrect                  5                       # Number of incorrect RAS predictions.
system.cpu.branchPred.condIncorrect             81341                       # Number of conditional branches incorrect
system.cpu.branchPred.condPredicted           3727831                       # Number of conditional branches predicted
system.cpu.branchPred.indirectHits                291                       # Number of indirect target hits.
system.cpu.branchPred.indirectLookups             809                       # Number of indirect predictor lookups.
system.cpu.branchPred.indirectMisses              518                       # Number of indirect misses.
system.cpu.branchPred.lookups                 4477954                       # Number of BP lookups
system.cpu.branchPred.usedRAS                   65343                       # Number of times the RAS was used to get a target.
system.cpu.branchPredindirectMispredicted          171                       # Number of mispredicted indirect branches.
system.cpu.committedInsts                   100000001                       # Number of instructions committed
system.cpu.committedOps                     100196363                       # Number of ops (including micro ops) committed
system.cpu.cpi                               1.721877                       # CPI: cycles per instruction
system.cpu.discardedOps                        190880                       # Number of ops (including micro ops) which were discarded before commit
system.cpu.dtb.accesses                             0                       # DTB accesses
system.cpu.dtb.align_faults                         0                       # Number of TLB faults due to alignment restrictions
system.cpu.dtb.domain_faults                        0                       # Number of TLB faults due to domain restrictions
system.cpu.dtb.flush_entries                        0                       # Number of entries that have been flushed from TLB
system.cpu.dtb.flush_tlb                            0                       # Number of times complete TLB was flushed
system.cpu.dtb.flush_tlb_asid                       0                       # Number of times TLB was flushed by ASID
system.cpu.dtb.flush_tlb_mva                        0                       # Number of times TLB was flushed by MVA
system.cpu.dtb.flush_tlb_mva_asid                   0                       # Number of times TLB was flushed by MVA & ASID
system.cpu.dtb.hits                                 0                       # DTB hits
system.cpu.dtb.inst_accesses                        0                       # ITB inst accesses
system.cpu.dtb.inst_hits                            0                       # ITB inst hits
system.cpu.dtb.inst_misses                          0                       # ITB inst misses
system.cpu.dtb.misses                               0                       # DTB misses
system.cpu.dtb.perms_faults                         0                       # Number of TLB faults due to permissions restrictions
system.cpu.dtb.prefetch_faults                      0                       # Number of TLB faults due to prefetch
system.cpu.dtb.read_accesses                        0                       # DTB read accesses
system.cpu.dtb.read_hits                            0                       # DTB read hits
system.cpu.dtb.read_misses                          0                       # DTB read misses
system.cpu.dtb.stage2_mmu.stage2_tlb.accesses            0                       # DTB accesses
system.cpu.dtb.stage2_mmu.stage2_tlb.align_faults            0                       # Number of TLB faults due to alignment restrictions
system.cpu.dtb.stage2_mmu.stage2_tlb.domain_faults            0                       # Number of TLB faults due to domain restrictions
system.cpu.dtb.stage2_mmu.stage2_tlb.flush_entries            0                       # Number of entries that have been flushed from TLB
system.cpu.dtb.stage2_mmu.stage2_tlb.flush_tlb            0                       # Number of times complete TLB was flushed
system.cpu.dtb.stage2_mmu.stage2_tlb.flush_tlb_asid            0                       # Number of times TLB was flushed by ASID
system.cpu.dtb.stage2_mmu.stage2_tlb.flush_tlb_mva            0                       # Number of times TLB was flushed by MVA
system.cpu.dtb.stage2_mmu.stage2_tlb.flush_tlb_mva_asid            0                       # Number of times TLB was flushed by MVA & ASID
system.cpu.dtb.stage2_mmu.stage2_tlb.hits            0                       # DTB hits
system.cpu.dtb.stage2_mmu.stage2_tlb.inst_accesses            0                       # ITB inst accesses
system.cpu.dtb.stage2_mmu.stage2_tlb.inst_hits            0                       # ITB inst hits
system.cpu.dtb.stage2_mmu.stage2_tlb.inst_misses            0                       # ITB inst misses
system.cpu.dtb.stage2_mmu.stage2_tlb.misses            0                       # DTB misses
system.cpu.dtb.stage2_mmu.stage2_tlb.perms_faults            0                       # Number of TLB faults due to permissions restrictions
system.cpu.dtb.stage2_mmu.stage2_tlb.prefetch_faults            0                       # Number of TLB faults due to prefetch
system.cpu.dtb.stage2_mmu.stage2_tlb.read_accesses            0                       # DTB read accesses
system.cpu.dtb.stage2_mmu.stage2_tlb.read_hits            0                       # DTB read hits
system.cpu.dtb.stage2_mmu.stage2_tlb.read_misses            0                       # DTB read misses
system.cpu.dtb.stage2_mmu.stage2_tlb.walker.walkRequestOrigin_Requested::Data            0                       # Table walker requests started/completed, data/inst
system.cpu.dtb.stage2_mmu.stage2_tlb.walker.walkRequestOrigin_Requested::Inst            0                       # Table walker requests started/completed, data/inst
system.cpu.dtb.stage2_mmu.stage2_tlb.walker.walkRequestOrigin_Requested::total            0                       # Table walker requests started/completed, data/inst
system.cpu.dtb.stage2_mmu.stage2_tlb.walker.walkRequestOrigin_Completed::Data            0                       # Table walker requests started/completed, data/inst
system.cpu.dtb.stage2_mmu.stage2_tlb.walker.walkRequestOrigin_Completed::Inst            0                       # Table walker requests started/completed, data/inst
system.cpu.dtb.stage2_mmu.stage2_tlb.walker.walkRequestOrigin_Completed::total            0                       # Table walker requests started/completed, data/inst
system.cpu.dtb.stage2_mmu.stage2_tlb.walker.walkRequestOrigin::total            0                       # Table walker requests started/completed, data/inst
system.cpu.dtb.stage2_mmu.stage2_tlb.walker.walks            0                       # Table walker walks requested
system.cpu.dtb.stage2_mmu.stage2_tlb.write_accesses            0                       # DTB write accesses
system.cpu.dtb.stage2_mmu.stage2_tlb.write_hits            0                       # DTB write hits
system.cpu.dtb.stage2_mmu.stage2_tlb.write_misses            0                       # DTB write misses
system.cpu.dtb.walker.walkRequestOrigin_Requested::Data            0                       # Table walker requests started/completed, data/inst
system.cpu.dtb.walker.walkRequestOrigin_Requested::Inst            0                       # Table walker requests started/completed, data/inst
system.cpu.dtb.walker.walkRequestOrigin_Requested::total            0                       # Table walker requests started/completed, data/inst
system.cpu.dtb.walker.walkRequestOrigin_Completed::Data            0                       # Table walker requests started/completed, data/inst
system.cpu.dtb.walker.walkRequestOrigin_Completed::Inst            0                       # Table walker requests started/completed, data/inst
system.cpu.dtb.walker.walkRequestOrigin_Completed::total            0                       # Table walker requests started/completed, data/inst
system.cpu.dtb.walker.walkRequestOrigin::total            0                       # Table walker requests started/completed, data/inst
system.cpu.dtb.walker.walks                         0                       # Table walker walks requested
system.cpu.dtb.write_accesses                       0                       # DTB write accesses
system.cpu.dtb.write_hits                           0                       # DTB write hits
system.cpu.dtb.write_misses                         0                       # DTB write misses
system.cpu.fetch2.amo_instructions                  0                       # Number of memory atomic instructions successfully decoded
system.cpu.fetch2.fp_instructions                   0                       # Number of floating point instructions successfully decoded
system.cpu.fetch2.int_instructions           42610541                       # Number of integer instructions successfully decoded
system.cpu.fetch2.load_instructions          43402785                       # Number of memory load instructions successfully decoded
system.cpu.fetch2.store_instructions         11001551                       # Number of memory store instructions successfully decoded
system.cpu.fetch2.vec_instructions                  0                       # Number of SIMD instructions successfully decoded
system.cpu.idleCycles                        38987718                       # Total number of cycles that the object has spent stopped
system.cpu.ipc                               0.580761                       # IPC: instructions per cycle
system.cpu.itb.accesses                             0                       # DTB accesses
system.cpu.itb.align_faults                         0                       # Number of TLB faults due to alignment restrictions
system.cpu.itb.domain_faults                        0                       # Number of TLB faults due to domain restrictions
system.cpu.itb.flush_entries                        0                       # Number of entries that have been flushed from TLB
system.cpu.itb.flush_tlb                            0                       # Number of times complete TLB was flushed
system.cpu.itb.flush_tlb_asid                       0                       # Number of times TLB was flushed by ASID
system.cpu.itb.flush_tlb_mva                        0                       # Number of times TLB was flushed by MVA
system.cpu.itb.flush_tlb_mva_asid                   0                       # Number of times TLB was flushed by MVA & ASID
system.cpu.itb.hits                                 0                       # DTB hits
system.cpu.itb.inst_accesses                        0                       # ITB inst accesses
system.cpu.itb.inst_hits                            0                       # ITB inst hits
system.cpu.itb.inst_misses                          0                       # ITB inst misses
system.cpu.itb.misses                               0                       # DTB misses
system.cpu.itb.perms_faults                         0                       # Number of TLB faults due to permissions restrictions
system.cpu.itb.prefetch_faults                      0                       # Number of TLB faults due to prefetch
system.cpu.itb.read_accesses                        0                       # DTB read accesses
system.cpu.itb.read_hits                            0                       # DTB read hits
system.cpu.itb.read_misses                          0                       # DTB read misses
system.cpu.itb.stage2_mmu.stage2_tlb.accesses            0                       # DTB accesses
system.cpu.itb.stage2_mmu.stage2_tlb.align_faults            0                       # Number of TLB faults due to alignment restrictions
system.cpu.itb.stage2_mmu.stage2_tlb.domain_faults            0                       # Number of TLB faults due to domain restrictions
system.cpu.itb.stage2_mmu.stage2_tlb.flush_entries            0                       # Number of entries that have been flushed from TLB
system.cpu.itb.stage2_mmu.stage2_tlb.flush_tlb            0                       # Number of times complete TLB was flushed
system.cpu.itb.stage2_mmu.stage2_tlb.flush_tlb_asid            0                       # Number of times TLB was flushed by ASID
system.cpu.itb.stage2_mmu.stage2_tlb.flush_tlb_mva            0                       # Number of times TLB was flushed by MVA
system.cpu.itb.stage2_mmu.stage2_tlb.flush_tlb_mva_asid            0                       # Number of times TLB was flushed by MVA & ASID
system.cpu.itb.stage2_mmu.stage2_tlb.hits            0                       # DTB hits
system.cpu.itb.stage2_mmu.stage2_tlb.inst_accesses            0                       # ITB inst accesses
system.cpu.itb.stage2_mmu.stage2_tlb.inst_hits            0                       # ITB inst hits
system.cpu.itb.stage2_mmu.stage2_tlb.inst_misses            0                       # ITB inst misses
system.cpu.itb.stage2_mmu.stage2_tlb.misses            0                       # DTB misses
system.cpu.itb.stage2_mmu.stage2_tlb.perms_faults            0                       # Number of TLB faults due to permissions restrictions
system.cpu.itb.stage2_mmu.stage2_tlb.prefetch_faults            0                       # Number of TLB faults due to prefetch
system.cpu.itb.stage2_mmu.stage2_tlb.read_accesses            0                       # DTB read accesses
system.cpu.itb.stage2_mmu.stage2_tlb.read_hits            0                       # DTB read hits
system.cpu.itb.stage2_mmu.stage2_tlb.read_misses            0                       # DTB read misses
system.cpu.itb.stage2_mmu.stage2_tlb.walker.walkRequestOrigin_Requested::Data            0                       # Table walker requests started/completed, data/inst
system.cpu.itb.stage2_mmu.stage2_tlb.walker.walkRequestOrigin_Requested::Inst            0                       # Table walker requests started/completed, data/inst
system.cpu.itb.stage2_mmu.stage2_tlb.walker.walkRequestOrigin_Requested::total            0                       # Table walker requests started/completed, data/inst
system.cpu.itb.stage2_mmu.stage2_tlb.walker.walkRequestOrigin_Completed::Data            0                       # Table walker requests started/completed, data/inst
system.cpu.itb.stage2_mmu.stage2_tlb.walker.walkRequestOrigin_Completed::Inst            0                       # Table walker requests started/completed, data/inst
system.cpu.itb.stage2_mmu.stage2_tlb.walker.walkRequestOrigin_Completed::total            0                       # Table walker requests started/completed, data/inst
system.cpu.itb.stage2_mmu.stage2_tlb.walker.walkRequestOrigin::total            0                       # Table walker requests started/completed, data/inst
system.cpu.itb.stage2_mmu.stage2_tlb.walker.walks            0                       # Table walker walks requested
system.cpu.itb.stage2_mmu.stage2_tlb.write_accesses            0                       # DTB write accesses
system.cpu.itb.stage2_mmu.stage2_tlb.write_hits            0                       # DTB write hits
system.cpu.itb.stage2_mmu.stage2_tlb.write_misses            0                       # DTB write misses
system.cpu.itb.walker.walkRequestOrigin_Requested::Data            0                       # Table walker requests started/completed, data/inst
system.cpu.itb.walker.walkRequestOrigin_Requested::Inst            0                       # Table walker requests started/completed, data/inst
system.cpu.itb.walker.walkRequestOrigin_Requested::total            0                       # Table walker requests started/completed, data/inst
system.cpu.itb.walker.walkRequestOrigin_Completed::Data            0                       # Table walker requests started/completed, data/inst
system.cpu.itb.walker.walkRequestOrigin_Completed::Inst            0                       # Table walker requests started/completed, data/inst
system.cpu.itb.walker.walkRequestOrigin_Completed::total            0                       # Table walker requests started/completed, data/inst
system.cpu.itb.walker.walkRequestOrigin::total            0                       # Table walker requests started/completed, data/inst
system.cpu.itb.walker.walks                         0                       # Table walker walks requested
system.cpu.itb.write_accesses                       0                       # DTB write accesses
system.cpu.itb.write_hits                           0                       # DTB write hits
system.cpu.itb.write_misses                         0                       # DTB write misses
system.cpu.numCycles                        172187742                       # number of cpu cycles simulated
system.cpu.numFetchSuspends                         0                       # Number of times Execute suspended instruction fetching
system.cpu.numWorkItemsCompleted                    0                       # number of work items this cpu completed
system.cpu.numWorkItemsStarted                      0                       # number of work items this cpu started
system.cpu.op_class_0::No_OpClass                   0      0.00%      0.00% # Class of committed instruction
system.cpu.op_class_0::IntAlu                46531400     46.44%     46.44% # Class of committed instruction
system.cpu.op_class_0::IntMult                  20720      0.02%     46.46% # Class of committed instruction
system.cpu.op_class_0::IntDiv                       0      0.00%     46.46% # Class of committed instruction
system.cpu.op_class_0::FloatAdd                     0      0.00%     46.46% # Class of committed instruction
system.cpu.op_class_0::FloatCmp                     0      0.00%     46.46% # Class of committed instruction
system.cpu.op_class_0::FloatCvt                     0      0.00%     46.46% # Class of committed instruction
system.cpu.op_class_0::FloatMult                    0      0.00%     46.46% # Class of committed instruction
system.cpu.op_class_0::FloatMultAcc                 0      0.00%     46.46% # Class of committed instruction
system.cpu.op_class_0::FloatDiv                     0      0.00%     46.46% # Class of committed instruction
system.cpu.op_class_0::FloatMisc                    0      0.00%     46.46% # Class of committed instruction
system.cpu.op_class_0::FloatSqrt                    0      0.00%     46.46% # Class of committed instruction
system.cpu.op_class_0::SimdAdd                      0      0.00%     46.46% # Class of committed instruction
system.cpu.op_class_0::SimdAddAcc                   0      0.00%     46.46% # Class of committed instruction
system.cpu.op_class_0::SimdAlu                      0      0.00%     46.46% # Class of committed instruction
system.cpu.op_class_0::SimdCmp                      0      0.00%     46.46% # Class of committed instruction
system.cpu.op_class_0::SimdCvt                      0      0.00%     46.46% # Class of committed instruction
system.cpu.op_class_0::SimdMisc                     0      0.00%     46.46% # Class of committed instruction
system.cpu.op_class_0::SimdMult                     0      0.00%     46.46% # Class of committed instruction
system.cpu.op_class_0::SimdMultAcc                  0      0.00%     46.46% # Class of committed instruction
system.cpu.op_class_0::SimdShift                    0      0.00%     46.46% # Class of committed instruction
system.cpu.op_class_0::SimdShiftAcc                 0      0.00%     46.46% # Class of committed instruction
system.cpu.op_class_0::SimdDiv                      0      0.00%     46.46% # Class of committed instruction
system.cpu.op_class_0::SimdSqrt                     0      0.00%     46.46% # Class of committed instruction
system.cpu.op_class_0::SimdFloatAdd                 0      0.00%     46.46% # Class of committed instruction
system.cpu.op_class_0::SimdFloatAlu                 0      0.00%     46.46% # Class of committed instruction
system.cpu.op_class_0::SimdFloatCmp                 0      0.00%     46.46% # Class of committed instruction
system.cpu.op_class_0::SimdFloatCvt                 0      0.00%     46.46% # Class of committed instruction
system.cpu.op_class_0::SimdFloatDiv                 0      0.00%     46.46% # Class of committed instruction
system.cpu.op_class_0::SimdFloatMisc               18      0.00%     46.46% # Class of committed instruction
system.cpu.op_class_0::SimdFloatMult                0      0.00%     46.46% # Class of committed instruction
system.cpu.op_class_0::SimdFloatMultAcc             0      0.00%     46.46% # Class of committed instruction
system.cpu.op_class_0::SimdFloatSqrt                0      0.00%     46.46% # Class of committed instruction
system.cpu.op_class_0::SimdReduceAdd                0      0.00%     46.46% # Class of committed instruction
system.cpu.op_class_0::SimdReduceAlu                0      0.00%     46.46% # Class of committed instruction
system.cpu.op_class_0::SimdReduceCmp                0      0.00%     46.46% # Class of committed instruction
system.cpu.op_class_0::SimdFloatReduceAdd            0      0.00%     46.46% # Class of committed instruction
system.cpu.op_class_0::SimdFloatReduceCmp            0      0.00%     46.46% # Class of committed instruction
system.cpu.op_class_0::SimdAes                      0      0.00%     46.46% # Class of committed instruction
system.cpu.op_class_0::SimdAesMix                   0      0.00%     46.46% # Class of committed instruction
system.cpu.op_class_0::SimdSha1Hash                 0      0.00%     46.46% # Class of committed instruction
system.cpu.op_class_0::SimdSha1Hash2                0      0.00%     46.46% # Class of committed instruction
system.cpu.op_class_0::SimdSha256Hash               0      0.00%     46.46% # Class of committed instruction
system.cpu.op_class_0::SimdSha256Hash2              0      0.00%     46.46% # Class of committed instruction
system.cpu.op_class_0::SimdShaSigma2                0      0.00%     46.46% # Class of committed instruction
system.cpu.op_class_0::SimdShaSigma3                0      0.00%     46.46% # Class of committed instruction
system.cpu.op_class_0::SimdPredAlu                  0      0.00%     46.46% # Class of committed instruction
system.cpu.op_class_0::MemRead               42693601     42.61%     89.07% # Class of committed instruction
system.cpu.op_class_0::MemWrite              10950624     10.93%    100.00% # Class of committed instruction
system.cpu.op_class_0::FloatMemRead                 0      0.00%    100.00% # Class of committed instruction
system.cpu.op_class_0::FloatMemWrite                0      0.00%    100.00% # Class of committed instruction
system.cpu.op_class_0::IprAccess                    0      0.00%    100.00% # Class of committed instruction
system.cpu.op_class_0::InstPrefetch                 0      0.00%    100.00% # Class of committed instruction
system.cpu.op_class_0::total                100196363                       # Class of committed instruction
system.cpu.tickCycles                       133200024                       # Number of cycles that the object actually ticked
system.cpu.workload.numSyscalls                    84                       # Number of system calls
system.membus.snoop_filter.hit_multi_requests            0                       # Number of requests hitting in the snoop filter with multiple (>1) holders of the requested data.
system.membus.snoop_filter.hit_multi_snoops            0                       # Number of snoops hitting in the snoop filter with multiple (>1) holders of the requested data.
system.membus.snoop_filter.hit_single_requests       268751                       # Number of requests hitting in the snoop filter with a single holder of the requested data.
system.membus.snoop_filter.hit_single_snoops            0                       # Number of snoops hitting in the snoop filter with a single holder of the requested data.
system.membus.snoop_filter.tot_requests        546195                       # Total number of requests made to the snoop filter.
system.membus.snoop_filter.tot_snoops               0                       # Total number of snoops made to the snoop filter.
system.tol2bus.snoop_filter.hit_multi_requests         1527                       # Number of requests hitting in the snoop filter with multiple (>1) holders of the requested data.
system.tol2bus.snoop_filter.hit_multi_snoops            0                       # Number of snoops hitting in the snoop filter with multiple (>1) holders of the requested data.
system.tol2bus.snoop_filter.hit_single_requests      1054370                       # Number of requests hitting in the snoop filter with a single holder of the requested data.
system.tol2bus.snoop_filter.hit_single_snoops          602                       # Number of snoops hitting in the snoop filter with a single holder of the requested data.
system.tol2bus.snoop_filter.tot_requests      2109764                       # Total number of requests made to the snoop filter.
system.tol2bus.snoop_filter.tot_snoops            602                       # Total number of snoops made to the snoop filter.
system.membus.pwrStateResidencyTicks::UNDEFINED 172187742000                       # Cumulative time (in ticks) in various power states
system.membus.trans_dist::ReadResp             109124                       # Transaction distribution
system.membus.trans_dist::WritebackDirty       190610                       # Transaction distribution
system.membus.trans_dist::CleanEvict            78130                       # Transaction distribution
system.membus.trans_dist::ReadExReq            168331                       # Transaction distribution
system.membus.trans_dist::ReadExResp           168330                       # Transaction distribution
system.membus.trans_dist::ReadSharedReq        109124                       # Transaction distribution
system.membus.pkt_count_system.l2.mem_side::system.mem_ctrls.port       823649                       # Packet count per connected master and slave (bytes)
system.membus.pkt_count::total                 823649                       # Packet count per connected master and slave (bytes)
system.membus.pkt_size_system.l2.mem_side::system.mem_ctrls.port     29956096                       # Cumulative packet size per connected master and slave (bytes)
system.membus.pkt_size::total                29956096                       # Cumulative packet size per connected master and slave (bytes)
system.membus.snoops                                0                       # Total snoops (count)
system.membus.snoopTraffic                          0                       # Total snoop traffic (bytes)
system.membus.snoop_fanout::samples            277455                       # Request fanout histogram
system.membus.snoop_fanout::mean                    0                       # Request fanout histogram
system.membus.snoop_fanout::stdev                   0                       # Request fanout histogram
system.membus.snoop_fanout::underflows              0      0.00%      0.00% # Request fanout histogram
system.membus.snoop_fanout::0                  277455    100.00%    100.00% # Request fanout histogram
system.membus.snoop_fanout::1                       0      0.00%    100.00% # Request fanout histogram
system.membus.snoop_fanout::overflows               0      0.00%    100.00% # Request fanout histogram
system.membus.snoop_fanout::min_value               0                       # Request fanout histogram
system.membus.snoop_fanout::max_value               0                       # Request fanout histogram
system.membus.snoop_fanout::total              277455                       # Request fanout histogram
system.membus.respLayer1.occupancy         1508665500                       # Layer occupancy (ticks)
system.membus.respLayer1.utilization              0.9                       # Layer utilization (%)
system.membus.reqLayer0.occupancy          1308635000                       # Layer occupancy (ticks)
system.membus.reqLayer0.utilization               0.8                       # Layer utilization (%)
system.tol2bus.pwrStateResidencyTicks::UNDEFINED 172187742000                       # Cumulative time (in ticks) in various power states
system.tol2bus.trans_dist::ReadResp            671829                       # Transaction distribution
system.tol2bus.trans_dist::WritebackDirty      1134519                       # Transaction distribution
system.tol2bus.trans_dist::WritebackClean          245                       # Transaction distribution
system.tol2bus.trans_dist::CleanEvict          188947                       # Transaction distribution
system.tol2bus.trans_dist::ReadExReq           383566                       # Transaction distribution
system.tol2bus.trans_dist::ReadExResp          383565                       # Transaction distribution
system.tol2bus.trans_dist::ReadCleanReq           758                       # Transaction distribution
system.tol2bus.trans_dist::ReadSharedReq       671071                       # Transaction distribution
system.tol2bus.pkt_count_system.cpu.icache.mem_side::system.l2.cpu_side         1761                       # Packet count per connected master and slave (bytes)
system.tol2bus.pkt_count_system.cpu.dcache.mem_side::system.l2.cpu_side      3163397                       # Packet count per connected master and slave (bytes)
system.tol2bus.pkt_count::total               3165158                       # Packet count per connected master and slave (bytes)
system.tol2bus.pkt_size_system.cpu.icache.mem_side::system.l2.cpu_side        64192                       # Cumulative packet size per connected master and slave (bytes)
system.tol2bus.pkt_size_system.cpu.dcache.mem_side::system.l2.cpu_side    127906880                       # Cumulative packet size per connected master and slave (bytes)
system.tol2bus.pkt_size::total              127971072                       # Cumulative packet size per connected master and slave (bytes)
system.tol2bus.snoops                          269342                       # Total snoops (count)
system.tol2bus.snoopTraffic                  12199040                       # Total snoop traffic (bytes)
system.tol2bus.snoop_fanout::samples          1324737                       # Request fanout histogram
system.tol2bus.snoop_fanout::mean            0.001608                       # Request fanout histogram
system.tol2bus.snoop_fanout::stdev           0.040066                       # Request fanout histogram
system.tol2bus.snoop_fanout::underflows             0      0.00%      0.00% # Request fanout histogram
system.tol2bus.snoop_fanout::0                1322607     99.84%     99.84% # Request fanout histogram
system.tol2bus.snoop_fanout::1                   2130      0.16%    100.00% # Request fanout histogram
system.tol2bus.snoop_fanout::2                      0      0.00%    100.00% # Request fanout histogram
system.tol2bus.snoop_fanout::overflows              0      0.00%    100.00% # Request fanout histogram
system.tol2bus.snoop_fanout::min_value              0                       # Request fanout histogram
system.tol2bus.snoop_fanout::max_value              1                       # Request fanout histogram
system.tol2bus.snoop_fanout::total            1324737                       # Request fanout histogram
system.tol2bus.reqLayer0.occupancy         3998072000                       # Layer occupancy (ticks)
system.tol2bus.reqLayer0.utilization              2.3                       # Layer utilization (%)
system.tol2bus.respLayer1.occupancy        3163910997                       # Layer occupancy (ticks)
system.tol2bus.respLayer1.utilization             1.8                       # Layer utilization (%)
system.tol2bus.respLayer0.occupancy           2274000                       # Layer occupancy (ticks)
system.tol2bus.respLayer0.utilization             0.0                       # Layer utilization (%)
system.voltage_domain.voltage                       1                       # Voltage in Volts
system.clk_domain.clock                          1000                       # Clock period in ticks
system.l2.pwrStateResidencyTicks::UNDEFINED 172187742000                       # Cumulative time (in ticks) in various power states
system.l2.demand_hits::.cpu.inst                   90                       # number of demand (read+write) hits
system.l2.demand_hits::.cpu.data               777847                       # number of demand (read+write) hits
system.l2.demand_hits::total                   777937                       # number of demand (read+write) hits
system.l2.overall_hits::.cpu.inst                  90                       # number of overall hits
system.l2.overall_hits::.cpu.data              777847                       # number of overall hits
system.l2.overall_hits::total                  777937                       # number of overall hits
system.l2.demand_misses::.cpu.inst                668                       # number of demand (read+write) misses
system.l2.demand_misses::.cpu.data             276790                       # number of demand (read+write) misses
system.l2.demand_misses::total                 277458                       # number of demand (read+write) misses
system.l2.overall_misses::.cpu.inst               668                       # number of overall misses
system.l2.overall_misses::.cpu.data            276790                       # number of overall misses
system.l2.overall_misses::total                277458                       # number of overall misses
system.l2.demand_miss_latency::.cpu.inst     66633000                       # number of demand (read+write) miss cycles
system.l2.demand_miss_latency::.cpu.data  29448396000                       # number of demand (read+write) miss cycles
system.l2.demand_miss_latency::total      29515029000                       # number of demand (read+write) miss cycles
system.l2.overall_miss_latency::.cpu.inst     66633000                       # number of overall miss cycles
system.l2.overall_miss_latency::.cpu.data  29448396000                       # number of overall miss cycles
system.l2.overall_miss_latency::total     29515029000                       # number of overall miss cycles
system.l2.demand_accesses::.cpu.inst              758                       # number of demand (read+write) accesses
system.l2.demand_accesses::.cpu.data          1054637                       # number of demand (read+write) accesses
system.l2.demand_accesses::total              1055395                       # number of demand (read+write) accesses
system.l2.overall_accesses::.cpu.inst             758                       # number of overall (read+write) accesses
system.l2.overall_accesses::.cpu.data         1054637                       # number of overall (read+write) accesses
system.l2.overall_accesses::total             1055395                       # number of overall (read+write) accesses
system.l2.demand_miss_rate::.cpu.inst        0.881266                       # miss rate for demand accesses
system.l2.demand_miss_rate::.cpu.data        0.262450                       # miss rate for demand accesses
system.l2.demand_miss_rate::total            0.262895                       # miss rate for demand accesses
system.l2.overall_miss_rate::.cpu.inst       0.881266                       # miss rate for overall accesses
system.l2.overall_miss_rate::.cpu.data       0.262450                       # miss rate for overall accesses
system.l2.overall_miss_rate::total           0.262895                       # miss rate for overall accesses
system.l2.demand_avg_miss_latency::.cpu.inst        99750                       # average overall miss latency
system.l2.demand_avg_miss_latency::.cpu.data 106392.557535                       # average overall miss latency
system.l2.demand_avg_miss_latency::total 106376.565102                       # average overall miss latency
system.l2.overall_avg_miss_latency::.cpu.inst        99750                       # average overall miss latency
system.l2.overall_avg_miss_latency::.cpu.data 106392.557535                       # average overall miss latency
system.l2.overall_avg_miss_latency::total 106376.565102                       # average overall miss latency
system.l2.blocked_cycles::no_mshrs                  0                       # number of cycles access was blocked
system.l2.blocked_cycles::no_targets                0                       # number of cycles access was blocked
system.l2.blocked::no_mshrs                         0                       # number of cycles access was blocked
system.l2.blocked::no_targets                       0                       # number of cycles access was blocked
system.l2.avg_blocked_cycles::no_mshrs            nan                       # average number of cycles each access was blocked
system.l2.avg_blocked_cycles::no_targets          nan                       # average number of cycles each access was blocked
system.l2.writebacks::.writebacks              190610                       # number of writebacks
system.l2.writebacks::total                    190610                       # number of writebacks
system.l2.demand_mshr_hits::.cpu.data               3                       # number of demand (read+write) MSHR hits
system.l2.demand_mshr_hits::total                   3                       # number of demand (read+write) MSHR hits
system.l2.overall_mshr_hits::.cpu.data              3                       # number of overall MSHR hits
system.l2.overall_mshr_hits::total                  3                       # number of overall MSHR hits
system.l2.demand_mshr_misses::.cpu.inst           668                       # number of demand (read+write) MSHR misses
system.l2.demand_mshr_misses::.cpu.data        276787                       # number of demand (read+write) MSHR misses
system.l2.demand_mshr_misses::total            277455                       # number of demand (read+write) MSHR misses
system.l2.overall_mshr_misses::.cpu.inst          668                       # number of overall MSHR misses
system.l2.overall_mshr_misses::.cpu.data       276787                       # number of overall MSHR misses
system.l2.overall_mshr_misses::total           277455                       # number of overall MSHR misses
system.l2.demand_mshr_miss_latency::.cpu.inst     53273000                       # number of demand (read+write) MSHR miss cycles
system.l2.demand_mshr_miss_latency::.cpu.data  23912428000                       # number of demand (read+write) MSHR miss cycles
system.l2.demand_mshr_miss_latency::total  23965701000                       # number of demand (read+write) MSHR miss cycles
system.l2.overall_mshr_miss_latency::.cpu.inst     53273000                       # number of overall MSHR miss cycles
system.l2.overall_mshr_miss_latency::.cpu.data  23912428000                       # number of overall MSHR miss cycles
system.l2.overall_mshr_miss_latency::total  23965701000                       # number of overall MSHR miss cycles
system.l2.demand_mshr_miss_rate::.cpu.inst     0.881266                       # mshr miss rate for demand accesses
system.l2.demand_mshr_miss_rate::.cpu.data     0.262448                       # mshr miss rate for demand accesses
system.l2.demand_mshr_miss_rate::total       0.262892                       # mshr miss rate for demand accesses
system.l2.overall_mshr_miss_rate::.cpu.inst     0.881266                       # mshr miss rate for overall accesses
system.l2.overall_mshr_miss_rate::.cpu.data     0.262448                       # mshr miss rate for overall accesses
system.l2.overall_mshr_miss_rate::total      0.262892                       # mshr miss rate for overall accesses
system.l2.demand_avg_mshr_miss_latency::.cpu.inst        79750                       # average overall mshr miss latency
system.l2.demand_avg_mshr_miss_latency::.cpu.data 86392.886949                       # average overall mshr miss latency
system.l2.demand_avg_mshr_miss_latency::total 86376.893550                       # average overall mshr miss latency
system.l2.overall_avg_mshr_miss_latency::.cpu.inst        79750                       # average overall mshr miss latency
system.l2.overall_avg_mshr_miss_latency::.cpu.data 86392.886949                       # average overall mshr miss latency
system.l2.overall_avg_mshr_miss_latency::total 86376.893550                       # average overall mshr miss latency
system.l2.replacements                         269342                       # number of replacements
system.l2.WritebackDirty_hits::.writebacks       943909                       # number of WritebackDirty hits
system.l2.WritebackDirty_hits::total           943909                       # number of WritebackDirty hits
system.l2.WritebackDirty_accesses::.writebacks       943909                       # number of WritebackDirty accesses(hits+misses)
system.l2.WritebackDirty_accesses::total       943909                       # number of WritebackDirty accesses(hits+misses)
system.l2.WritebackClean_hits::.writebacks          234                       # number of WritebackClean hits
system.l2.WritebackClean_hits::total              234                       # number of WritebackClean hits
system.l2.WritebackClean_accesses::.writebacks          234                       # number of WritebackClean accesses(hits+misses)
system.l2.WritebackClean_accesses::total          234                       # number of WritebackClean accesses(hits+misses)
system.l2.ReadExReq_hits::.cpu.data            215235                       # number of ReadExReq hits
system.l2.ReadExReq_hits::total                215235                       # number of ReadExReq hits
system.l2.ReadExReq_misses::.cpu.data          168331                       # number of ReadExReq misses
system.l2.ReadExReq_misses::total              168331                       # number of ReadExReq misses
system.l2.ReadExReq_miss_latency::.cpu.data  18297687000                       # number of ReadExReq miss cycles
system.l2.ReadExReq_miss_latency::total   18297687000                       # number of ReadExReq miss cycles
system.l2.ReadExReq_accesses::.cpu.data        383566                       # number of ReadExReq accesses(hits+misses)
system.l2.ReadExReq_accesses::total            383566                       # number of ReadExReq accesses(hits+misses)
system.l2.ReadExReq_miss_rate::.cpu.data     0.438858                       # miss rate for ReadExReq accesses
system.l2.ReadExReq_miss_rate::total         0.438858                       # miss rate for ReadExReq accesses
system.l2.ReadExReq_avg_miss_latency::.cpu.data 108700.637435                       # average ReadExReq miss latency
system.l2.ReadExReq_avg_miss_latency::total 108700.637435                       # average ReadExReq miss latency
system.l2.ReadExReq_mshr_misses::.cpu.data       168331                       # number of ReadExReq MSHR misses
system.l2.ReadExReq_mshr_misses::total         168331                       # number of ReadExReq MSHR misses
system.l2.ReadExReq_mshr_miss_latency::.cpu.data  14931087000                       # number of ReadExReq MSHR miss cycles
system.l2.ReadExReq_mshr_miss_latency::total  14931087000                       # number of ReadExReq MSHR miss cycles
system.l2.ReadExReq_mshr_miss_rate::.cpu.data     0.438858                       # mshr miss rate for ReadExReq accesses
system.l2.ReadExReq_mshr_miss_rate::total     0.438858                       # mshr miss rate for ReadExReq accesses
system.l2.ReadExReq_avg_mshr_miss_latency::.cpu.data 88700.756248                       # average ReadExReq mshr miss latency
system.l2.ReadExReq_avg_mshr_miss_latency::total 88700.756248                       # average ReadExReq mshr miss latency
system.l2.ReadCleanReq_hits::.cpu.inst             90                       # number of ReadCleanReq hits
system.l2.ReadCleanReq_hits::total                 90                       # number of ReadCleanReq hits
system.l2.ReadCleanReq_misses::.cpu.inst          668                       # number of ReadCleanReq misses
system.l2.ReadCleanReq_misses::total              668                       # number of ReadCleanReq misses
system.l2.ReadCleanReq_miss_latency::.cpu.inst     66633000                       # number of ReadCleanReq miss cycles
system.l2.ReadCleanReq_miss_latency::total     66633000                       # number of ReadCleanReq miss cycles
system.l2.ReadCleanReq_accesses::.cpu.inst          758                       # number of ReadCleanReq accesses(hits+misses)
system.l2.ReadCleanReq_accesses::total            758                       # number of ReadCleanReq accesses(hits+misses)
system.l2.ReadCleanReq_miss_rate::.cpu.inst     0.881266                       # miss rate for ReadCleanReq accesses
system.l2.ReadCleanReq_miss_rate::total      0.881266                       # miss rate for ReadCleanReq accesses
system.l2.ReadCleanReq_avg_miss_latency::.cpu.inst        99750                       # average ReadCleanReq miss latency
system.l2.ReadCleanReq_avg_miss_latency::total        99750                       # average ReadCleanReq miss latency
system.l2.ReadCleanReq_mshr_misses::.cpu.inst          668                       # number of ReadCleanReq MSHR misses
system.l2.ReadCleanReq_mshr_misses::total          668                       # number of ReadCleanReq MSHR misses
system.l2.ReadCleanReq_mshr_miss_latency::.cpu.inst     53273000                       # number of ReadCleanReq MSHR miss cycles
system.l2.ReadCleanReq_mshr_miss_latency::total     53273000                       # number of ReadCleanReq MSHR miss cycles
system.l2.ReadCleanReq_mshr_miss_rate::.cpu.inst     0.881266                       # mshr miss rate for ReadCleanReq accesses
system.l2.ReadCleanReq_mshr_miss_rate::total     0.881266                       # mshr miss rate for ReadCleanReq accesses
system.l2.ReadCleanReq_avg_mshr_miss_latency::.cpu.inst        79750                       # average ReadCleanReq mshr miss latency
system.l2.ReadCleanReq_avg_mshr_miss_latency::total        79750                       # average ReadCleanReq mshr miss latency
system.l2.ReadSharedReq_hits::.cpu.data        562612                       # number of ReadSharedReq hits
system.l2.ReadSharedReq_hits::total            562612                       # number of ReadSharedReq hits
system.l2.ReadSharedReq_misses::.cpu.data       108459                       # number of ReadSharedReq misses
system.l2.ReadSharedReq_misses::total          108459                       # number of ReadSharedReq misses
system.l2.ReadSharedReq_miss_latency::.cpu.data  11150709000                       # number of ReadSharedReq miss cycles
system.l2.ReadSharedReq_miss_latency::total  11150709000                       # number of ReadSharedReq miss cycles
system.l2.ReadSharedReq_accesses::.cpu.data       671071                       # number of ReadSharedReq accesses(hits+misses)
system.l2.ReadSharedReq_accesses::total        671071                       # number of ReadSharedReq accesses(hits+misses)
system.l2.ReadSharedReq_miss_rate::.cpu.data     0.161621                       # miss rate for ReadSharedReq accesses
system.l2.ReadSharedReq_miss_rate::total     0.161621                       # miss rate for ReadSharedReq accesses
system.l2.ReadSharedReq_avg_miss_latency::.cpu.data 102810.361519                       # average ReadSharedReq miss latency
system.l2.ReadSharedReq_avg_miss_latency::total 102810.361519                       # average ReadSharedReq miss latency
system.l2.ReadSharedReq_mshr_hits::.cpu.data            3                       # number of ReadSharedReq MSHR hits
system.l2.ReadSharedReq_mshr_hits::total            3                       # number of ReadSharedReq MSHR hits
system.l2.ReadSharedReq_mshr_misses::.cpu.data       108456                       # number of ReadSharedReq MSHR misses
system.l2.ReadSharedReq_mshr_misses::total       108456                       # number of ReadSharedReq MSHR misses
system.l2.ReadSharedReq_mshr_miss_latency::.cpu.data   8981341000                       # number of ReadSharedReq MSHR miss cycles
system.l2.ReadSharedReq_mshr_miss_latency::total   8981341000                       # number of ReadSharedReq MSHR miss cycles
system.l2.ReadSharedReq_mshr_miss_rate::.cpu.data     0.161616                       # mshr miss rate for ReadSharedReq accesses
system.l2.ReadSharedReq_mshr_miss_rate::total     0.161616                       # mshr miss rate for ReadSharedReq accesses
system.l2.ReadSharedReq_avg_mshr_miss_latency::.cpu.data 82810.918714                       # average ReadSharedReq mshr miss latency
system.l2.ReadSharedReq_avg_mshr_miss_latency::total 82810.918714                       # average ReadSharedReq mshr miss latency
system.l2.tags.pwrStateResidencyTicks::UNDEFINED 172187742000                       # Cumulative time (in ticks) in various power states
system.l2.tags.tagsinuse                  8089.611000                       # Cycle average of tags in use
system.l2.tags.total_refs                     2108233                       # Total number of references to valid blocks.
system.l2.tags.sampled_refs                    277534                       # Sample count of references to valid blocks.
system.l2.tags.avg_refs                      7.596305                       # Average number of references to valid blocks.
system.l2.tags.warmup_cycle                     87000                       # Cycle when the warmup percentage was hit.
system.l2.tags.occ_blocks::.writebacks       6.250136                       # Average occupied blocks per requestor
system.l2.tags.occ_blocks::.cpu.inst        26.386782                       # Average occupied blocks per requestor
system.l2.tags.occ_blocks::.cpu.data      8056.974081                       # Average occupied blocks per requestor
system.l2.tags.occ_percent::.writebacks      0.000763                       # Average percentage of cache occupancy
system.l2.tags.occ_percent::.cpu.inst        0.003221                       # Average percentage of cache occupancy
system.l2.tags.occ_percent::.cpu.data        0.983517                       # Average percentage of cache occupancy
system.l2.tags.occ_percent::total            0.987501                       # Average percentage of cache occupancy
system.l2.tags.occ_task_id_blocks::1024          8192                       # Occupied blocks per task id
system.l2.tags.age_task_id_blocks_1024::0           98                       # Occupied blocks per task id
system.l2.tags.age_task_id_blocks_1024::1          286                       # Occupied blocks per task id
system.l2.tags.age_task_id_blocks_1024::2         2508                       # Occupied blocks per task id
system.l2.tags.age_task_id_blocks_1024::3         5161                       # Occupied blocks per task id
system.l2.tags.age_task_id_blocks_1024::4          139                       # Occupied blocks per task id
system.l2.tags.occ_task_id_percent::1024            1                       # Percentage of cache occupancy per task id
system.l2.tags.tag_accesses                  17143430                       # Number of tag accesses
system.l2.tags.data_accesses                 17143430                       # Number of data accesses
system.cpu_voltage_domain.voltage                   1                       # Voltage in Volts
system.mem_ctrls.pwrStateResidencyTicks::UNDEFINED 172187742000                       # Cumulative time (in ticks) in various power states
system.mem_ctrls.bytes_read::.cpu.inst          42752                       # Number of bytes read from this memory
system.mem_ctrls.bytes_read::.cpu.data       17714368                       # Number of bytes read from this memory
system.mem_ctrls.bytes_read::total           17757120                       # Number of bytes read from this memory
system.mem_ctrls.bytes_inst_read::.cpu.inst        42752                       # Number of instructions bytes read from this memory
system.mem_ctrls.bytes_inst_read::total         42752                       # Number of instructions bytes read from this memory
system.mem_ctrls.bytes_written::.writebacks     12199040                       # Number of bytes written to this memory
system.mem_ctrls.bytes_written::total        12199040                       # Number of bytes written to this memory
system.mem_ctrls.num_reads::.cpu.inst             668                       # Number of read requests responded to by this memory
system.mem_ctrls.num_reads::.cpu.data          276787                       # Number of read requests responded to by this memory
system.mem_ctrls.num_reads::total              277455                       # Number of read requests responded to by this memory
system.mem_ctrls.num_writes::.writebacks       190610                       # Number of write requests responded to by this memory
system.mem_ctrls.num_writes::total             190610                       # Number of write requests responded to by this memory
system.mem_ctrls.bw_read::.cpu.inst            248287                       # Total read bandwidth from this memory (bytes/s)
system.mem_ctrls.bw_read::.cpu.data         102878218                       # Total read bandwidth from this memory (bytes/s)
system.mem_ctrls.bw_read::total             103126505                       # Total read bandwidth from this memory (bytes/s)
system.mem_ctrls.bw_inst_read::.cpu.inst       248287                       # Instruction read bandwidth from this memory (bytes/s)
system.mem_ctrls.bw_inst_read::total           248287                       # Instruction read bandwidth from this memory (bytes/s)
system.mem_ctrls.bw_write::.writebacks       70847320                       # Write bandwidth from this memory (bytes/s)
system.mem_ctrls.bw_write::total             70847320                       # Write bandwidth from this memory (bytes/s)
system.mem_ctrls.bw_total::.writebacks       70847320                       # Total bandwidth to/from this memory (bytes/s)
system.mem_ctrls.bw_total::.cpu.inst           248287                       # Total bandwidth to/from this memory (bytes/s)
system.mem_ctrls.bw_total::.cpu.data        102878218                       # Total bandwidth to/from this memory (bytes/s)
system.mem_ctrls.bw_total::total            173973824                       # Total bandwidth to/from this memory (bytes/s)
system.mem_ctrls.avgPriority_.writebacks::samples    190610.00                       # Average QoS priority value for accepted requests
system.mem_ctrls.avgPriority_.cpu.inst::samples       668.00                       # Average QoS priority value for accepted requests
system.mem_ctrls.avgPriority_.cpu.data::samples    276126.00                       # Average QoS priority value for accepted requests
system.mem_ctrls.priorityMinLatency      0.000000018750                       # per QoS priority minimum request to response latency (s)
system.mem_ctrls.priorityMaxLatency      0.021302718250                       # per QoS priority maximum request to response latency (s)
system.mem_ctrls.numReadWriteTurnArounds        11172                       # Number of turnarounds from READ to WRITE
system.mem_ctrls.numWriteReadTurnArounds        11172                       # Number of turnarounds from WRITE to READ
system.mem_ctrls.numStayReadState              775852                       # Number of times bus staying in READ state
system.mem_ctrls.numStayWriteState             179662                       # Number of times bus staying in WRITE state
system.mem_ctrls.readReqs                      277455                       # Number of read requests accepted
system.mem_ctrls.writeReqs                     190610                       # Number of write requests accepted
system.mem_ctrls.readBursts                    277455                       # Number of DRAM read bursts, including those serviced by the write queue
system.mem_ctrls.writeBursts                   190610                       # Number of DRAM write bursts, including those merged in the write queue
system.mem_ctrls.servicedByWrQ                    661                       # Number of DRAM read bursts serviced by the write queue
system.mem_ctrls.mergedWrBursts                     0                       # Number of DRAM write bursts merged with an existing one
system.mem_ctrls.neitherReadNorWriteReqs            0                       # Number of requests that are neither read nor write
system.mem_ctrls.perBankRdBursts::0             17893                       # Per bank write bursts
system.mem_ctrls.perBankRdBursts::1             17237                       # Per bank write bursts
system.mem_ctrls.perBankRdBursts::2             17013                       # Per bank write bursts
system.mem_ctrls.perBankRdBursts::3             17182                       # Per bank write bursts
system.mem_ctrls.perBankRdBursts::4             18038                       # Per bank write bursts
system.mem_ctrls.perBankRdBursts::5             17798                       # Per bank write bursts
system.mem_ctrls.perBankRdBursts::6             16480                       # Per bank write bursts
system.mem_ctrls.perBankRdBursts::7             17197                       # Per bank write bursts
system.mem_ctrls.perBankRdBursts::8             17388                       # Per bank write bursts
system.mem_ctrls.perBankRdBursts::9             17490                       # Per bank write bursts
system.mem_ctrls.perBankRdBursts::10            16695                       # Per bank write bursts
system.mem_ctrls.perBankRdBursts::11            16647                       # Per bank write bursts
system.mem_ctrls.perBankRdBursts::12            17679                       # Per bank write bursts
system.mem_ctrls.perBankRdBursts::13            17822                       # Per bank write bursts
system.mem_ctrls.perBankRdBursts::14            16855                       # Per bank write bursts
system.mem_ctrls.perBankRdBursts::15            17380                       # Per bank write bursts
system.mem_ctrls.perBankWrBursts::0             12265                       # Per bank write bursts
system.mem_ctrls.perBankWrBursts::1             11687                       # Per bank write bursts
system.mem_ctrls.perBankWrBursts::2             11542                       # Per bank write bursts
system.mem_ctrls.perBankWrBursts::3             11822                       # Per bank write bursts
system.mem_ctrls.perBankWrBursts::4             12900                       # Per bank write bursts
system.mem_ctrls.perBankWrBursts::5             12526                       # Per bank write bursts
system.mem_ctrls.perBankWrBursts::6             11133                       # Per bank write bursts
system.mem_ctrls.perBankWrBursts::7             11729                       # Per bank write bursts
system.mem_ctrls.perBankWrBursts::8             11929                       # Per bank write bursts
system.mem_ctrls.perBankWrBursts::9             12168                       # Per bank write bursts
system.mem_ctrls.perBankWrBursts::10            11487                       # Per bank write bursts
system.mem_ctrls.perBankWrBursts::11            11518                       # Per bank write bursts
system.mem_ctrls.perBankWrBursts::12            12258                       # Per bank write bursts
system.mem_ctrls.perBankWrBursts::13            12355                       # Per bank write bursts
system.mem_ctrls.perBankWrBursts::14            11331                       # Per bank write bursts
system.mem_ctrls.perBankWrBursts::15            11929                       # Per bank write bursts
system.mem_ctrls.avgRdQLen                       1.05                       # Average read queue length when enqueuing
system.mem_ctrls.avgWrQLen                      24.89                       # Average write queue length when enqueuing
system.mem_ctrls.totQLat                   4504934750                       # Total ticks spent queuing
system.mem_ctrls.totBusLat                 1383970000                       # Total ticks spent in databus transfers
system.mem_ctrls.totMemAccLat              9694822250                       # Total ticks spent from burst creation until serviced by the DRAM
system.mem_ctrls.avgQLat                     16275.41                       # Average queueing delay per DRAM burst
system.mem_ctrls.avgBusLat                    5000.00                       # Average bus latency per DRAM burst
system.mem_ctrls.avgMemAccLat                35025.41                       # Average memory access latency per DRAM burst
system.mem_ctrls.numRdRetry                         0                       # Number of times read queue was full causing retry
system.mem_ctrls.numWrRetry                         0                       # Number of times write queue was full causing retry
system.mem_ctrls.readRowHits                   145895                       # Number of row buffer hits during reads
system.mem_ctrls.writeRowHits                   97101                       # Number of row buffer hits during writes
system.mem_ctrls.readRowHitRate                 52.71                       # Row buffer hit rate for reads
system.mem_ctrls.writeRowHitRate                50.94                       # Row buffer hit rate for writes
system.mem_ctrls.readPktSize::0                     0                       # Read request sizes (log2)
system.mem_ctrls.readPktSize::1                     0                       # Read request sizes (log2)
system.mem_ctrls.readPktSize::2                     0                       # Read request sizes (log2)
system.mem_ctrls.readPktSize::3                     0                       # Read request sizes (log2)
system.mem_ctrls.readPktSize::4                     0                       # Read request sizes (log2)
system.mem_ctrls.readPktSize::5                     0                       # Read request sizes (log2)
system.mem_ctrls.readPktSize::6                277455                       # Read request sizes (log2)
system.mem_ctrls.writePktSize::0                    0                       # Write request sizes (log2)
system.mem_ctrls.writePktSize::1                    0                       # Write request sizes (log2)
system.mem_ctrls.writePktSize::2                    0                       # Write request sizes (log2)
system.mem_ctrls.writePktSize::3                    0                       # Write request sizes (log2)
system.mem_ctrls.writePktSize::4                    0                       # Write request sizes (log2)
system.mem_ctrls.writePktSize::5                    0                       # Write request sizes (log2)
system.mem_ctrls.writePktSize::6               190610                       # Write request sizes (log2)
system.mem_ctrls.rdQLenPdf::0                  224181                       # What read queue length does an incoming req see
system.mem_ctrls.rdQLenPdf::1                   52468                       # What read queue length does an incoming req see
system.mem_ctrls.rdQLenPdf::2                      89                       # What read queue length does an incoming req see
system.mem_ctrls.rdQLenPdf::3                      55                       # What read queue length does an incoming req see
system.mem_ctrls.rdQLenPdf::4                       1                       # What read queue length does an incoming req see
system.mem_ctrls.rdQLenPdf::5                       0                       # What read queue length does an incoming req see
system.mem_ctrls.rdQLenPdf::6                       0                       # What read queue length does an incoming req see
system.mem_ctrls.rdQLenPdf::7                       0                       # What read queue length does an incoming req see
system.mem_ctrls.rdQLenPdf::8                       0                       # What read queue length does an incoming req see
system.mem_ctrls.rdQLenPdf::9                       0                       # What read queue length does an incoming req see
system.mem_ctrls.rdQLenPdf::10                      0                       # What read queue length does an incoming req see
system.mem_ctrls.rdQLenPdf::11                      0                       # What read queue length does an incoming req see
system.mem_ctrls.rdQLenPdf::12                      0                       # What read queue length does an incoming req see
system.mem_ctrls.rdQLenPdf::13                      0                       # What read queue length does an incoming req see
system.mem_ctrls.rdQLenPdf::14                      0                       # What read queue length does an incoming req see
system.mem_ctrls.rdQLenPdf::15                      0                       # What read queue length does an incoming req see
system.mem_ctrls.rdQLenPdf::16                      0                       # What read queue length does an incoming req see
system.mem_ctrls.rdQLenPdf::17                      0                       # What read queue length does an incoming req see
system.mem_ctrls.rdQLenPdf::18                      0                       # What read queue length does an incoming req see
system.mem_ctrls.rdQLenPdf::19                      0                       # What read queue length does an incoming req see
system.mem_ctrls.rdQLenPdf::20                      0                       # What read queue length does an incoming req see
system.mem_ctrls.rdQLenPdf::21                      0                       # What read queue length does an incoming req see
system.mem_ctrls.rdQLenPdf::22                      0                       # What read queue length does an incoming req see
system.mem_ctrls.rdQLenPdf::23                      0                       # What read queue length does an incoming req see
system.mem_ctrls.rdQLenPdf::24                      0                       # What read queue length does an incoming req see
system.mem_ctrls.rdQLenPdf::25                      0                       # What read queue length does an incoming req see
system.mem_ctrls.rdQLenPdf::26                      0                       # What read queue length does an incoming req see
system.mem_ctrls.rdQLenPdf::27                      0                       # What read queue length does an incoming req see
system.mem_ctrls.rdQLenPdf::28                      0                       # What read queue length does an incoming req see
system.mem_ctrls.rdQLenPdf::29                      0                       # What read queue length does an incoming req see
system.mem_ctrls.rdQLenPdf::30                      0                       # What read queue length does an incoming req see
system.mem_ctrls.rdQLenPdf::31                      0                       # What read queue length does an incoming req see
system.mem_ctrls.wrQLenPdf::0                       1                       # What write queue length does an incoming req see
system.mem_ctrls.wrQLenPdf::1                       1                       # What write queue length does an incoming req see
system.mem_ctrls.wrQLenPdf::2                       1                       # What write queue length does an incoming req see
system.mem_ctrls.wrQLenPdf::3                       1                       # What write queue length does an incoming req see
system.mem_ctrls.wrQLenPdf::4                       1                       # What write queue length does an incoming req see
system.mem_ctrls.wrQLenPdf::5                       1                       # What write queue length does an incoming req see
system.mem_ctrls.wrQLenPdf::6                       1                       # What write queue length does an incoming req see
system.mem_ctrls.wrQLenPdf::7                       1                       # What write queue length does an incoming req see
system.mem_ctrls.wrQLenPdf::8                       1                       # What write queue length does an incoming req see
system.mem_ctrls.wrQLenPdf::9                       1                       # What write queue length does an incoming req see
system.mem_ctrls.wrQLenPdf::10                      1                       # What write queue length does an incoming req see
system.mem_ctrls.wrQLenPdf::11                      1                       # What write queue length does an incoming req see
system.mem_ctrls.wrQLenPdf::12                      1                       # What write queue length does an incoming req see
system.mem_ctrls.wrQLenPdf::13                      1                       # What write queue length does an incoming req see
system.mem_ctrls.wrQLenPdf::14                      1                       # What write queue length does an incoming req see
system.mem_ctrls.wrQLenPdf::15                   5453                       # What write queue length does an incoming req see
system.mem_ctrls.wrQLenPdf::16                   5793                       # What write queue length does an incoming req see
system.mem_ctrls.wrQLenPdf::17                  10897                       # What write queue length does an incoming req see
system.mem_ctrls.wrQLenPdf::18                  11260                       # What write queue length does an incoming req see
system.mem_ctrls.wrQLenPdf::19                  11251                       # What write queue length does an incoming req see
system.mem_ctrls.wrQLenPdf::20                  11241                       # What write queue length does an incoming req see
system.mem_ctrls.wrQLenPdf::21                  11333                       # What write queue length does an incoming req see
system.mem_ctrls.wrQLenPdf::22                  11255                       # What write queue length does an incoming req see
system.mem_ctrls.wrQLenPdf::23                  11240                       # What write queue length does an incoming req see
system.mem_ctrls.wrQLenPdf::24                  11244                       # What write queue length does an incoming req see
system.mem_ctrls.wrQLenPdf::25                  11226                       # What write queue length does an incoming req see
system.mem_ctrls.wrQLenPdf::26                  11231                       # What write queue length does an incoming req see
system.mem_ctrls.wrQLenPdf::27                  11203                       # What write queue length does an incoming req see
system.mem_ctrls.wrQLenPdf::28                  11201                       # What write queue length does an incoming req see
system.mem_ctrls.wrQLenPdf::29                  11205                       # What write queue length does an incoming req see
system.mem_ctrls.wrQLenPdf::30                  11176                       # What write queue length does an incoming req see
system.mem_ctrls.wrQLenPdf::31                  11212                       # What write queue length does an incoming req see
system.mem_ctrls.wrQLenPdf::32                  11172                       # What write queue length does an incoming req see
system.mem_ctrls.wrQLenPdf::33                      2                       # What write queue length does an incoming req see
system.mem_ctrls.wrQLenPdf::34                      0                       # What write queue length does an incoming req see
system.mem_ctrls.wrQLenPdf::35                      0                       # What write queue length does an incoming req see
system.mem_ctrls.wrQLenPdf::36                      0                       # What write queue length does an incoming req see
system.mem_ctrls.wrQLenPdf::37                      0                       # What write queue length does an incoming req see
system.mem_ctrls.wrQLenPdf::38                      0                       # What write queue length does an incoming req see
system.mem_ctrls.wrQLenPdf::39                      0                       # What write queue length does an incoming req see
system.mem_ctrls.wrQLenPdf::40                      0                       # What write queue length does an incoming req see
system.mem_ctrls.wrQLenPdf::41                      0                       # What write queue length does an incoming req see
system.mem_ctrls.wrQLenPdf::42                      0                       # What write queue length does an incoming req see
system.mem_ctrls.wrQLenPdf::43                      0                       # What write queue length does an incoming req see
system.mem_ctrls.wrQLenPdf::44                      0                       # What write queue length does an incoming req see
system.mem_ctrls.wrQLenPdf::45                      0                       # What write queue length does an incoming req see
system.mem_ctrls.wrQLenPdf::46                      0                       # What write queue length does an incoming req see
system.mem_ctrls.wrQLenPdf::47                      0                       # What write queue length does an incoming req see
system.mem_ctrls.wrQLenPdf::48                      0                       # What write queue length does an incoming req see
system.mem_ctrls.wrQLenPdf::49                      0                       # What write queue length does an incoming req see
system.mem_ctrls.wrQLenPdf::50                      0                       # What write queue length does an incoming req see
system.mem_ctrls.wrQLenPdf::51                      0                       # What write queue length does an incoming req see
system.mem_ctrls.wrQLenPdf::52                      0                       # What write queue length does an incoming req see
system.mem_ctrls.wrQLenPdf::53                      0                       # What write queue length does an incoming req see
system.mem_ctrls.wrQLenPdf::54                      0                       # What write queue length does an incoming req see
system.mem_ctrls.wrQLenPdf::55                      0                       # What write queue length does an incoming req see
system.mem_ctrls.wrQLenPdf::56                      0                       # What write queue length does an incoming req see
system.mem_ctrls.wrQLenPdf::57                      0                       # What write queue length does an incoming req see
system.mem_ctrls.wrQLenPdf::58                      0                       # What write queue length does an incoming req see
system.mem_ctrls.wrQLenPdf::59                      0                       # What write queue length does an incoming req see
system.mem_ctrls.wrQLenPdf::60                      0                       # What write queue length does an incoming req see
system.mem_ctrls.wrQLenPdf::61                      0                       # What write queue length does an incoming req see
system.mem_ctrls.wrQLenPdf::62                      0                       # What write queue length does an incoming req see
system.mem_ctrls.wrQLenPdf::63                      0                       # What write queue length does an incoming req see
system.mem_ctrls.bytesPerActivate::samples       224364                       # Bytes accessed per row activation
system.mem_ctrls.bytesPerActivate::mean    133.314507                       # Bytes accessed per row activation
system.mem_ctrls.bytesPerActivate::gmean    89.358654                       # Bytes accessed per row activation
system.mem_ctrls.bytesPerActivate::stdev   191.565397                       # Bytes accessed per row activation
system.mem_ctrls.bytesPerActivate::0-127       171202     76.31%     76.31% # Bytes accessed per row activation
system.mem_ctrls.bytesPerActivate::128-255        27923     12.45%     88.75% # Bytes accessed per row activation
system.mem_ctrls.bytesPerActivate::256-383         5867      2.61%     91.37% # Bytes accessed per row activation
system.mem_ctrls.bytesPerActivate::384-511         1986      0.89%     92.25% # Bytes accessed per row activation
system.mem_ctrls.bytesPerActivate::512-639         9344      4.16%     96.42% # Bytes accessed per row activation
system.mem_ctrls.bytesPerActivate::640-767          746      0.33%     96.75% # Bytes accessed per row activation
system.mem_ctrls.bytesPerActivate::768-895          502      0.22%     96.97% # Bytes accessed per row activation
system.mem_ctrls.bytesPerActivate::896-1023          507      0.23%     97.20% # Bytes accessed per row activation
system.mem_ctrls.bytesPerActivate::1024-1151         6287      2.80%    100.00% # Bytes accessed per row activation
system.mem_ctrls.bytesPerActivate::total       224364                       # Bytes accessed per row activation
system.mem_ctrls.rdPerTurnAround::samples        11172                       # Reads before turning the bus around for writes
system.mem_ctrls.rdPerTurnAround::mean      24.774257                       # Reads before turning the bus around for writes
system.mem_ctrls.rdPerTurnAround::gmean     22.204221                       # Reads before turning the bus around for writes
system.mem_ctrls.rdPerTurnAround::stdev     35.516442                       # Reads before turning the bus around for writes
system.mem_ctrls.rdPerTurnAround::0-63          11053     98.93%     98.93% # Reads before turning the bus around for writes
system.mem_ctrls.rdPerTurnAround::64-127           54      0.48%     99.42% # Reads before turning the bus around for writes
system.mem_ctrls.rdPerTurnAround::128-191           20      0.18%     99.60% # Reads before turning the bus around for writes
system.mem_ctrls.rdPerTurnAround::192-255            3      0.03%     99.62% # Reads before turning the bus around for writes
system.mem_ctrls.rdPerTurnAround::256-319           27      0.24%     99.87% # Reads before turning the bus around for writes
system.mem_ctrls.rdPerTurnAround::320-383            4      0.04%     99.90% # Reads before turning the bus around for writes
system.mem_ctrls.rdPerTurnAround::704-767            5      0.04%     99.95% # Reads before turning the bus around for writes
system.mem_ctrls.rdPerTurnAround::832-895            1      0.01%     99.96% # Reads before turning the bus around for writes
system.mem_ctrls.rdPerTurnAround::960-1023            1      0.01%     99.96% # Reads before turning the bus around for writes
[...]
system.cpu.icache.ReadReq_miss_rate::total     0.000078                       # miss rate for ReadReq accesses
system.cpu.icache.ReadReq_avg_miss_latency::.cpu.inst 95448.548813                       # average ReadReq miss latency
system.cpu.icache.ReadReq_avg_miss_latency::total 95448.548813                       # average ReadReq miss latency
system.cpu.icache.ReadReq_mshr_misses::.cpu.inst          758                       # number of ReadReq MSHR misses
system.cpu.icache.ReadReq_mshr_misses::total          758                       # number of ReadReq MSHR misses
system.cpu.icache.ReadReq_mshr_miss_latency::.cpu.inst     70834000                       # number of ReadReq MSHR miss cycles
system.cpu.icache.ReadReq_mshr_miss_latency::total     70834000                       # number of ReadReq MSHR miss cycles
system.cpu.icache.ReadReq_mshr_miss_rate::.cpu.inst     0.000078                       # mshr miss rate for ReadReq accesses
system.cpu.icache.ReadReq_mshr_miss_rate::total     0.000078                       # mshr miss rate for ReadReq accesses
system.cpu.icache.ReadReq_avg_mshr_miss_latency::.cpu.inst 93448.548813                       # average ReadReq mshr miss latency
system.cpu.icache.ReadReq_avg_mshr_miss_latency::total 93448.548813                       # average ReadReq mshr miss latency
system.cpu.icache.tags.pwrStateResidencyTicks::UNDEFINED 172187742000                       # Cumulative time (in ticks) in various power states
system.cpu.icache.tags.tagsinuse           422.989616                       # Cycle average of tags in use
system.cpu.icache.tags.total_refs             9664005                       # Total number of references to valid blocks.
system.cpu.icache.tags.sampled_refs               758                       # Sample count of references to valid blocks.
system.cpu.icache.tags.avg_refs          12749.346966                       # Average number of references to valid blocks.
system.cpu.icache.tags.warmup_cycle            108000                       # Cycle when the warmup percentage was hit.
system.cpu.icache.tags.occ_blocks::.cpu.inst   422.989616                       # Average occupied blocks per requestor
system.cpu.icache.tags.occ_percent::.cpu.inst     0.413076                       # Average percentage of cache occupancy
system.cpu.icache.tags.occ_percent::total     0.413076                       # Average percentage of cache occupancy
system.cpu.icache.tags.occ_task_id_blocks::1024          513                       # Occupied blocks per task id
system.cpu.icache.tags.age_task_id_blocks_1024::4          513                       # Occupied blocks per task id
system.cpu.icache.tags.occ_task_id_percent::1024     0.500977                       # Percentage of cache occupancy per task id
system.cpu.icache.tags.tag_accesses           9664763                       # Number of tag accesses
system.cpu.icache.tags.data_accesses          9664763                       # Number of data accesses
system.cpu.dtb.walker.pwrStateResidencyTicks::UNDEFINED 172187742000                       # Cumulative time (in ticks) in various power states
system.cpu.dtb.stage2_mmu.stage2_tlb.walker.pwrStateResidencyTicks::UNDEFINED 172187742000                       # Cumulative time (in ticks) in various power states
system.cpu.dcache.pwrStateResidencyTicks::UNDEFINED 172187742000                       # Cumulative time (in ticks) in various power states
system.cpu.dcache.demand_hits::.cpu.data     50967264                       # number of demand (read+write) hits
system.cpu.dcache.demand_hits::total         50967264                       # number of demand (read+write) hits
system.cpu.dcache.overall_hits::.cpu.data     50967675                       # number of overall hits
system.cpu.dcache.overall_hits::total        50967675                       # number of overall hits
system.cpu.dcache.demand_misses::.cpu.data      1105822                       # number of demand (read+write) misses
system.cpu.dcache.demand_misses::total        1105822                       # number of demand (read+write) misses
system.cpu.dcache.overall_misses::.cpu.data      1113823                       # number of overall misses
system.cpu.dcache.overall_misses::total       1113823                       # number of overall misses
system.cpu.dcache.demand_miss_latency::.cpu.data  52611303000                       # number of demand (read+write) miss cycles
system.cpu.dcache.demand_miss_latency::total  52611303000                       # number of demand (read+write) miss cycles
system.cpu.dcache.overall_miss_latency::.cpu.data  52611303000                       # number of overall miss cycles
system.cpu.dcache.overall_miss_latency::total  52611303000                       # number of overall miss cycles
system.cpu.dcache.demand_accesses::.cpu.data     52073086                       # number of demand (read+write) accesses
system.cpu.dcache.demand_accesses::total     52073086                       # number of demand (read+write) accesses
system.cpu.dcache.overall_accesses::.cpu.data     52081498                       # number of overall (read+write) accesses
system.cpu.dcache.overall_accesses::total     52081498                       # number of overall (read+write) accesses
system.cpu.dcache.demand_miss_rate::.cpu.data     0.021236                       # miss rate for demand accesses
system.cpu.dcache.demand_miss_rate::total     0.021236                       # miss rate for demand accesses
system.cpu.dcache.overall_miss_rate::.cpu.data     0.021386                       # miss rate for overall accesses
system.cpu.dcache.overall_miss_rate::total     0.021386                       # miss rate for overall accesses
system.cpu.dcache.demand_avg_miss_latency::.cpu.data 47576.647055                       # average overall miss latency
system.cpu.dcache.demand_avg_miss_latency::total 47576.647055                       # average overall miss latency
system.cpu.dcache.overall_avg_miss_latency::.cpu.data 47234.886512                       # average overall miss latency
system.cpu.dcache.overall_avg_miss_latency::total 47234.886512                       # average overall miss latency
system.cpu.dcache.blocked_cycles::no_mshrs        83960                       # number of cycles access was blocked
system.cpu.dcache.blocked_cycles::no_targets            0                       # number of cycles access was blocked
system.cpu.dcache.blocked::no_mshrs              3163                       # number of cycles access was blocked
system.cpu.dcache.blocked::no_targets               0                       # number of cycles access was blocked
system.cpu.dcache.avg_blocked_cycles::no_mshrs    26.544420                       # average number of cycles each access was blocked
system.cpu.dcache.avg_blocked_cycles::no_targets          nan                       # average number of cycles each access was blocked
system.cpu.dcache.writebacks::.writebacks       943909                       # number of writebacks
system.cpu.dcache.writebacks::total            943909                       # number of writebacks
system.cpu.dcache.demand_mshr_hits::.cpu.data        59181                       # number of demand (read+write) MSHR hits
system.cpu.dcache.demand_mshr_hits::total        59181                       # number of demand (read+write) MSHR hits
system.cpu.dcache.overall_mshr_hits::.cpu.data        59181                       # number of overall MSHR hits
system.cpu.dcache.overall_mshr_hits::total        59181                       # number of overall MSHR hits
system.cpu.dcache.demand_mshr_misses::.cpu.data      1046641                       # number of demand (read+write) MSHR misses
system.cpu.dcache.demand_mshr_misses::total      1046641                       # number of demand (read+write) MSHR misses
system.cpu.dcache.overall_mshr_misses::.cpu.data      1054637                       # number of overall MSHR misses
system.cpu.dcache.overall_mshr_misses::total      1054637                       # number of overall MSHR misses
system.cpu.dcache.demand_mshr_miss_latency::.cpu.data  48707464000                       # number of demand (read+write) MSHR miss cycles
system.cpu.dcache.demand_mshr_miss_latency::total  48707464000                       # number of demand (read+write) MSHR miss cycles
system.cpu.dcache.overall_mshr_miss_latency::.cpu.data  49491521992                       # number of overall MSHR miss cycles
system.cpu.dcache.overall_mshr_miss_latency::total  49491521992                       # number of overall MSHR miss cycles
system.cpu.dcache.demand_mshr_miss_rate::.cpu.data     0.020099                       # mshr miss rate for demand accesses
system.cpu.dcache.demand_mshr_miss_rate::total     0.020099                       # mshr miss rate for demand accesses
system.cpu.dcache.overall_mshr_miss_rate::.cpu.data     0.020250                       # mshr miss rate for overall accesses
system.cpu.dcache.overall_mshr_miss_rate::total     0.020250                       # mshr miss rate for overall accesses
system.cpu.dcache.demand_avg_mshr_miss_latency::.cpu.data 46536.934823                       # average overall mshr miss latency
system.cpu.dcache.demand_avg_mshr_miss_latency::total 46536.934823                       # average overall mshr miss latency
system.cpu.dcache.overall_avg_mshr_miss_latency::.cpu.data 46927.541886                       # average overall mshr miss latency
system.cpu.dcache.overall_avg_mshr_miss_latency::total 46927.541886                       # average overall mshr miss latency
system.cpu.dcache.replacements                1054124                       # number of replacements
system.cpu.dcache.ReadReq_hits::.cpu.data     40456487                       # number of ReadReq hits
system.cpu.dcache.ReadReq_hits::total        40456487                       # number of ReadReq hits
system.cpu.dcache.ReadReq_misses::.cpu.data       666498                       # number of ReadReq misses
system.cpu.dcache.ReadReq_misses::total        666498                       # number of ReadReq misses
system.cpu.dcache.ReadReq_miss_latency::.cpu.data  25995460000                       # number of ReadReq miss cycles
system.cpu.dcache.ReadReq_miss_latency::total  25995460000                       # number of ReadReq miss cycles
system.cpu.dcache.ReadReq_accesses::.cpu.data     41122985                       # number of ReadReq accesses(hits+misses)
system.cpu.dcache.ReadReq_accesses::total     41122985                       # number of ReadReq accesses(hits+misses)
system.cpu.dcache.ReadReq_miss_rate::.cpu.data     0.016207                       # miss rate for ReadReq accesses
system.cpu.dcache.ReadReq_miss_rate::total     0.016207                       # miss rate for ReadReq accesses
system.cpu.dcache.ReadReq_avg_miss_latency::.cpu.data 39003.057774                       # average ReadReq miss latency
system.cpu.dcache.ReadReq_avg_miss_latency::total 39003.057774                       # average ReadReq miss latency
system.cpu.dcache.ReadReq_mshr_hits::.cpu.data         3305                       # number of ReadReq MSHR hits
system.cpu.dcache.ReadReq_mshr_hits::total         3305                       # number of ReadReq MSHR hits
system.cpu.dcache.ReadReq_mshr_misses::.cpu.data       663193                       # number of ReadReq MSHR misses
system.cpu.dcache.ReadReq_mshr_misses::total       663193                       # number of ReadReq MSHR misses
system.cpu.dcache.ReadReq_mshr_miss_latency::.cpu.data  24520493000                       # number of ReadReq MSHR miss cycles
system.cpu.dcache.ReadReq_mshr_miss_latency::total  24520493000                       # number of ReadReq MSHR miss cycles
system.cpu.dcache.ReadReq_mshr_miss_rate::.cpu.data     0.016127                       # mshr miss rate for ReadReq accesses
system.cpu.dcache.ReadReq_mshr_miss_rate::total     0.016127                       # mshr miss rate for ReadReq accesses
system.cpu.dcache.ReadReq_avg_mshr_miss_latency::.cpu.data 36973.389345                       # average ReadReq mshr miss latency
system.cpu.dcache.ReadReq_avg_mshr_miss_latency::total 36973.389345                       # average ReadReq mshr miss latency
system.cpu.dcache.WriteReq_hits::.cpu.data     10510777                       # number of WriteReq hits
system.cpu.dcache.WriteReq_hits::total       10510777                       # number of WriteReq hits
system.cpu.dcache.WriteReq_misses::.cpu.data       439324                       # number of WriteReq misses
system.cpu.dcache.WriteReq_misses::total       439324                       # number of WriteReq misses
system.cpu.dcache.WriteReq_miss_latency::.cpu.data  26615843000                       # number of WriteReq miss cycles
system.cpu.dcache.WriteReq_miss_latency::total  26615843000                       # number of WriteReq miss cycles
system.cpu.dcache.WriteReq_accesses::.cpu.data     10950101                       # number of WriteReq accesses(hits+misses)
system.cpu.dcache.WriteReq_accesses::total     10950101                       # number of WriteReq accesses(hits+misses)
system.cpu.dcache.WriteReq_miss_rate::.cpu.data     0.040121                       # miss rate for WriteReq accesses
system.cpu.dcache.WriteReq_miss_rate::total     0.040121                       # miss rate for WriteReq accesses
system.cpu.dcache.WriteReq_avg_miss_latency::.cpu.data 60583.630760                       # average WriteReq miss latency
system.cpu.dcache.WriteReq_avg_miss_latency::total 60583.630760                       # average WriteReq miss latency
system.cpu.dcache.WriteReq_mshr_hits::.cpu.data        55876                       # number of WriteReq MSHR hits
system.cpu.dcache.WriteReq_mshr_hits::total        55876                       # number of WriteReq MSHR hits
system.cpu.dcache.WriteReq_mshr_misses::.cpu.data       383448                       # number of WriteReq MSHR misses
system.cpu.dcache.WriteReq_mshr_misses::total       383448                       # number of WriteReq MSHR misses
system.cpu.dcache.WriteReq_mshr_miss_latency::.cpu.data  24186971000                       # number of WriteReq MSHR miss cycles
system.cpu.dcache.WriteReq_mshr_miss_latency::total  24186971000                       # number of WriteReq MSHR miss cycles
system.cpu.dcache.WriteReq_mshr_miss_rate::.cpu.data     0.035018                       # mshr miss rate for WriteReq accesses
system.cpu.dcache.WriteReq_mshr_miss_rate::total     0.035018                       # mshr miss rate for WriteReq accesses
system.cpu.dcache.WriteReq_avg_mshr_miss_latency::.cpu.data 63077.577664                       # average WriteReq mshr miss latency
system.cpu.dcache.WriteReq_avg_mshr_miss_latency::total 63077.577664                       # average WriteReq mshr miss latency
system.cpu.dcache.SoftPFReq_hits::.cpu.data          411                       # number of SoftPFReq hits
system.cpu.dcache.SoftPFReq_hits::total           411                       # number of SoftPFReq hits
system.cpu.dcache.SoftPFReq_misses::.cpu.data         8001                       # number of SoftPFReq misses
system.cpu.dcache.SoftPFReq_misses::total         8001                       # number of SoftPFReq misses
system.cpu.dcache.SoftPFReq_accesses::.cpu.data         8412                       # number of SoftPFReq accesses(hits+misses)
system.cpu.dcache.SoftPFReq_accesses::total         8412                       # number of SoftPFReq accesses(hits+misses)
system.cpu.dcache.SoftPFReq_miss_rate::.cpu.data     0.951141                       # miss rate for SoftPFReq accesses
system.cpu.dcache.SoftPFReq_miss_rate::total     0.951141                       # miss rate for SoftPFReq accesses
system.cpu.dcache.SoftPFReq_mshr_misses::.cpu.data         7996                       # number of SoftPFReq MSHR misses
system.cpu.dcache.SoftPFReq_mshr_misses::total         7996                       # number of SoftPFReq MSHR misses
system.cpu.dcache.SoftPFReq_mshr_miss_latency::.cpu.data    784057992                       # number of SoftPFReq MSHR miss cycles
system.cpu.dcache.SoftPFReq_mshr_miss_latency::total    784057992                       # number of SoftPFReq MSHR miss cycles
system.cpu.dcache.SoftPFReq_mshr_miss_rate::.cpu.data     0.950547                       # mshr miss rate for SoftPFReq accesses
system.cpu.dcache.SoftPFReq_mshr_miss_rate::total     0.950547                       # mshr miss rate for SoftPFReq accesses
system.cpu.dcache.SoftPFReq_avg_mshr_miss_latency::.cpu.data 98056.277139                       # average SoftPFReq mshr miss latency
system.cpu.dcache.SoftPFReq_avg_mshr_miss_latency::total 98056.277139                       # average SoftPFReq mshr miss latency
system.cpu.dcache.LoadLockedReq_hits::.cpu.data           38                       # number of LoadLockedReq hits
system.cpu.dcache.LoadLockedReq_hits::total           38                       # number of LoadLockedReq hits
system.cpu.dcache.LoadLockedReq_accesses::.cpu.data           38                       # number of LoadLockedReq accesses(hits+misses)
system.cpu.dcache.LoadLockedReq_accesses::total           38                       # number of LoadLockedReq accesses(hits+misses)
system.cpu.dcache.StoreCondReq_hits::.cpu.data           38                       # number of StoreCondReq hits
system.cpu.dcache.StoreCondReq_hits::total           38                       # number of StoreCondReq hits
system.cpu.dcache.StoreCondReq_accesses::.cpu.data           38                       # number of StoreCondReq accesses(hits+misses)
system.cpu.dcache.StoreCondReq_accesses::total           38                       # number of StoreCondReq accesses(hits+misses)
system.cpu.dcache.tags.pwrStateResidencyTicks::UNDEFINED 172187742000                       # Cumulative time (in ticks) in various power states
system.cpu.dcache.tags.tagsinuse           507.648025                       # Cycle average of tags in use
system.cpu.dcache.tags.total_refs            52022387                       # Total number of references to valid blocks.
system.cpu.dcache.tags.sampled_refs           1054636                       # Sample count of references to valid blocks.
system.cpu.dcache.tags.avg_refs             49.327339                       # Average number of references to valid blocks.
system.cpu.dcache.tags.warmup_cycle            223000                       # Cycle when the warmup percentage was hit.
system.cpu.dcache.tags.occ_blocks::.cpu.data   507.648025                       # Average occupied blocks per requestor
system.cpu.dcache.tags.occ_percent::.cpu.data     0.991500                       # Average percentage of cache occupancy
system.cpu.dcache.tags.occ_percent::total     0.991500                       # Average percentage of cache occupancy
system.cpu.dcache.tags.occ_task_id_blocks::1024          512                       # Occupied blocks per task id
system.cpu.dcache.tags.age_task_id_blocks_1024::0          105                       # Occupied blocks per task id
system.cpu.dcache.tags.age_task_id_blocks_1024::1          216                       # Occupied blocks per task id
system.cpu.dcache.tags.age_task_id_blocks_1024::2          191                       # Occupied blocks per task id
system.cpu.dcache.tags.occ_task_id_percent::1024            1                       # Percentage of cache occupancy per task id
system.cpu.dcache.tags.tag_accesses          53136210                       # Number of tag accesses
system.cpu.dcache.tags.data_accesses         53136210                       # Number of data accesses
system.cpu.itb.walker.pwrStateResidencyTicks::UNDEFINED 172187742000                       # Cumulative time (in ticks) in various power states
system.cpu.itb.stage2_mmu.stage2_tlb.walker.pwrStateResidencyTicks::UNDEFINED 172187742000                       # Cumulative time (in ticks) in various power states

---------- End Simulation Statistics   ----------
