
---------- Begin Simulation Statistics ----------
final_tick                               265595160000                       # Number of ticks from beginning of simulation (restored from checkpoints and never reset)
host_inst_rate                                 294707                       # Simulator instruction rate (inst/s)
host_mem_usage                                 714176                       # Number of bytes of host memory used
host_op_rate                                   294717                       # Simulator op (including micro ops) rate (op/s)
host_seconds                                   339.32                       # Real time elapsed on the host
host_tick_rate                              782727637                       # Simulator tick rate (ticks/s)
sim_freq                                 1000000000000                       # Frequency of simulated ticks
sim_insts                                   100000000                       # Number of instructions simulated
sim_ops                                     100003445                       # Number of ops (including micro ops) simulated
sim_seconds                                  0.265595                       # Number of seconds simulated
sim_ticks                                265595160000                       # Number of ticks simulated
system.cpu.branchPred.BTBCorrect                    0                       # Number of correct BTB predictions (this stat may not work properly.
system.cpu.branchPred.BTBHitPct             99.524827                       # BTB Hit Percentage
system.cpu.branchPred.BTBHits                  596722                       # Number of BTB hits
system.cpu.branchPred.BTBLookups               599571                       # Number of BTB lookups
system.cpu.branchPred.RASInCorrect                  7                       # Number of incorrect RAS predictions.
system.cpu.branchPred.condIncorrect               846                       # Number of conditional branches incorrect
system.cpu.branchPred.condPredicted            599821                       # Number of conditional branches predicted
system.cpu.branchPred.indirectHits                155                       # Number of indirect target hits.
system.cpu.branchPred.indirectLookups             385                       # Number of indirect predictor lookups.
system.cpu.branchPred.indirectMisses              230                       # Number of indirect misses.
system.cpu.branchPred.lookups                  601838                       # Number of BP lookups
system.cpu.branchPred.usedRAS                     557                       # Number of times the RAS was used to get a target.
system.cpu.branchPredindirectMispredicted          117                       # Number of mispredicted indirect branches.
system.cpu.committedInsts                   100000000                       # Number of instructions committed
system.cpu.committedOps                     100003445                       # Number of ops (including micro ops) committed
system.cpu.cpi                               2.655952                       # CPI: cycles per instruction
system.cpu.discardedOps                          2572                       # Number of ops (including micro ops) which were discarded before commit
system.cpu.dtb.accesses                             0                       # DTB accesses
system.cpu.dtb.align_faults                         0                       # Number of TLB faults due to alignment restrictions
system.cpu.dtb.domain_faults                        0                       # Number of TLB faults due to domain restrictions
system.cpu.dtb.flush_entries                        0                       # Number of entries that have been flushed from TLB
system.cpu.dtb.flush_tlb                            0                       # Number of times complete TLB was flushed
system.cpu.dtb.flush_tlb_asid                       0                       # Number of times TLB was flushed by ASID
system.cpu.dtb.flush_tlb_mva                        0                       # Number of times TLB was flushed by MVA
system.cpu.dtb.flush_tlb_mva_asid                   0                       # Number of times TLB was flushed by MVA & ASID
system.cpu.dtb.hits                                 0                       # DTB hits
system.cpu.dtb.inst_accesses                        0                       # ITB inst accesses
system.cpu.dtb.inst_hits                            0                       # ITB inst hits
system.cpu.dtb.inst_misses                          0                       # ITB inst misses
system.cpu.dtb.misses                               0                       # DTB misses
system.cpu.dtb.perms_faults                         0                       # Number of TLB faults due to permissions restrictions
system.cpu.dtb.prefetch_faults                      0                       # Number of TLB faults due to prefetch
system.cpu.dtb.read_accesses                        0                       # DTB read accesses
system.cpu.dtb.read_hits                            0                       # DTB read hits
system.cpu.dtb.read_misses                          0                       # DTB read misses
system.cpu.dtb.stage2_mmu.stage2_tlb.accesses            0                       # DTB accesses
system.cpu.dtb.stage2_mmu.stage2_tlb.align_faults            0                       # Number of TLB faults due to alignment restrictions
system.cpu.dtb.stage2_mmu.stage2_tlb.domain_faults            0                       # Number of TLB faults due to domain restrictions
system.cpu.dtb.stage2_mmu.stage2_tlb.flush_entries            0                       # Number of entries that have been flushed from TLB
system.cpu.dtb.stage2_mmu.stage2_tlb.flush_tlb            0                       # Number of times complete TLB was flushed
system.cpu.dtb.stage2_mmu.stage2_tlb.flush_tlb_asid            0                       # Number of times TLB was flushed by ASID
system.cpu.dtb.stage2_mmu.stage2_tlb.flush_tlb_mva            0                       # Number of times TLB was flushed by MVA
system.cpu.dtb.stage2_mmu.stage2_tlb.flush_tlb_mva_asid            0                       # Number of times TLB was flushed by MVA & ASID
system.cpu.dtb.stage2_mmu.stage2_tlb.hits            0                       # DTB hits
system.cpu.dtb.stage2_mmu.stage2_tlb.inst_accesses            0                       # ITB inst accesses
system.cpu.dtb.stage2_mmu.stage2_tlb.inst_hits            0                       # ITB inst hits
system.cpu.dtb.stage2_mmu.stage2_tlb.inst_misses            0                       # ITB inst misses
system.cpu.dtb.stage2_mmu.stage2_tlb.misses            0                       # DTB misses
system.cpu.dtb.stage2_mmu.stage2_tlb.perms_faults            0                       # Number of TLB faults due to permissions restrictions
system.cpu.dtb.stage2_mmu.stage2_tlb.prefetch_faults            0                       # Number of TLB faults due to prefetch
system.cpu.dtb.stage2_mmu.stage2_tlb.read_accesses            0                       # DTB read accesses
system.cpu.dtb.stage2_mmu.stage2_tlb.read_hits            0                       # DTB read hits
system.cpu.dtb.stage2_mmu.stage2_tlb.read_misses            0                       # DTB read misses
system.cpu.dtb.stage2_mmu.stage2_tlb.walker.walkRequestOrigin_Requested::Data            0                       # Table walker requests started/completed, data/inst
system.cpu.dtb.stage2_mmu.stage2_tlb.walker.walkRequestOrigin_Requested::Inst            0                       # Table walker requests started/completed, data/inst
system.cpu.dtb.stage2_mmu.stage2_tlb.walker.walkRequestOrigin_Requested::total            0                       # Table walker requests started/completed, data/inst
system.cpu.dtb.stage2_mmu.stage2_tlb.walker.walkRequestOrigin_Completed::Data            0                       # Table walker requests started/completed, data/inst
system.cpu.dtb.stage2_mmu.stage2_tlb.walker.walkRequestOrigin_Completed::Inst            0                       # Table walker requests started/completed, data/inst
system.cpu.dtb.stage2_mmu.stage2_tlb.walker.walkRequestOrigin_Completed::total            0                       # Table walker requests started/completed, data/inst
system.cpu.dtb.stage2_mmu.stage2_tlb.walker.walkRequestOrigin::total            0                       # Table walker requests started/completed, data/inst
system.cpu.dtb.stage2_mmu.stage2_tlb.walker.walks            0                       # Table walker walks requested
system.cpu.dtb.stage2_mmu.stage2_tlb.write_accesses            0                       # DTB write accesses
system.cpu.dtb.stage2_mmu.stage2_tlb.write_hits            0                       # DTB write hits
system.cpu.dtb.stage2_mmu.stage2_tlb.write_misses            0                       # DTB write misses
system.cpu.dtb.walker.walkRequestOrigin_Requested::Data            0                       # Table walker requests started/completed, data/inst
system.cpu.dtb.walker.walkRequestOrigin_Requested::Inst            0                       # Table walker requests started/completed, data/inst
system.cpu.dtb.walker.walkRequestOrigin_Requested::total            0                       # Table walker requests started/completed, data/inst
system.cpu.dtb.walker.walkRequestOrigin_Completed::Data            0                       # Table walker requests started/completed, data/inst
system.cpu.dtb.walker.walkRequestOrigin_Completed::Inst            0                       # Table walker requests started/completed, data/inst
system.cpu.dtb.walker.walkRequestOrigin_Completed::total            0                       # Table walker requests started/completed, data/inst
system.cpu.dtb.walker.walkRequestOrigin::total            0                       # Table walker requests started/completed, data/inst
system.cpu.dtb.walker.walks                         0                       # Table walker walks requested
system.cpu.dtb.write_accesses                       0                       # DTB write accesses
system.cpu.dtb.write_hits                           0                       # DTB write hits
system.cpu.dtb.write_misses                         0                       # DTB write misses
system.cpu.fetch2.amo_instructions                  0                       # Number of memory atomic instructions successfully decoded
system.cpu.fetch2.fp_instructions                   0                       # Number of floating point instructions successfully decoded
system.cpu.fetch2.int_instructions           49411607                       # Number of integer instructions successfully decoded
system.cpu.fetch2.load_instructions          36901056                       # Number of memory load instructions successfully decoded
system.cpu.fetch2.store_instructions         13094308                       # Number of memory store instructions successfully decoded
system.cpu.fetch2.vec_instructions                  0                       # Number of SIMD instructions successfully decoded
system.cpu.idleCycles                       148213081                       # Total number of cycles that the object has spent stopped
system.cpu.ipc                               0.376513                       # IPC: instructions per cycle
system.cpu.itb.accesses                             0                       # DTB accesses
system.cpu.itb.align_faults                         0                       # Number of TLB faults due to alignment restrictions
system.cpu.itb.domain_faults                        0                       # Number of TLB faults due to domain restrictions
system.cpu.itb.flush_entries                        0                       # Number of entries that have been flushed from TLB
system.cpu.itb.flush_tlb                            0                       # Number of times complete TLB was flushed
system.cpu.itb.flush_tlb_asid                       0                       # Number of times TLB was flushed by ASID
system.cpu.itb.flush_tlb_mva                        0                       # Number of times TLB was flushed by MVA
system.cpu.itb.flush_tlb_mva_asid                   0                       # Number of times TLB was flushed by MVA & ASID
system.cpu.itb.hits                                 0                       # DTB hits
system.cpu.itb.inst_accesses                        0                       # ITB inst accesses
system.cpu.itb.inst_hits                            0                       # ITB inst hits
system.cpu.itb.inst_misses                          0                       # ITB inst misses
system.cpu.itb.misses                               0                       # DTB misses
system.cpu.itb.perms_faults                         0                       # Number of TLB faults due to permissions restrictions
system.cpu.itb.prefetch_faults                      0                       # Number of TLB faults due to prefetch
system.cpu.itb.read_accesses                        0                       # DTB read accesses
system.cpu.itb.read_hits                            0                       # DTB read hits
system.cpu.itb.read_misses                          0                       # DTB read misses
system.cpu.itb.stage2_mmu.stage2_tlb.accesses            0                       # DTB accesses
system.cpu.itb.stage2_mmu.stage2_tlb.align_faults            0                       # Number of TLB faults due to alignment restrictions
system.cpu.itb.stage2_mmu.stage2_tlb.domain_faults            0                       # Number of TLB faults due to domain restrictions
system.cpu.itb.stage2_mmu.stage2_tlb.flush_entries            0                       # Number of entries that have been flushed from TLB
system.cpu.itb.stage2_mmu.stage2_tlb.flush_tlb            0                       # Number of times complete TLB was flushed
system.cpu.itb.stage2_mmu.stage2_tlb.flush_tlb_asid            0                       # Number of times TLB was flushed by ASID
system.cpu.itb.stage2_mmu.stage2_tlb.flush_tlb_mva            0                       # Number of times TLB was flushed by MVA
system.cpu.itb.stage2_mmu.stage2_tlb.flush_tlb_mva_asid            0                       # Number of times TLB was flushed by MVA & ASID
system.cpu.itb.stage2_mmu.stage2_tlb.hits            0                       # DTB hits
system.cpu.itb.stage2_mmu.stage2_tlb.inst_accesses            0                       # ITB inst accesses
system.cpu.itb.stage2_mmu.stage2_tlb.inst_hits            0                       # ITB inst hits
system.cpu.itb.stage2_mmu.stage2_tlb.inst_misses            0                       # ITB inst misses
system.cpu.itb.stage2_mmu.stage2_tlb.misses            0                       # DTB misses
system.cpu.itb.stage2_mmu.stage2_tlb.perms_faults            0                       # Number of TLB faults due to permissions restrictions
system.cpu.itb.stage2_mmu.stage2_tlb.prefetch_faults            0                       # Number of TLB faults due to prefetch
system.cpu.itb.stage2_mmu.stage2_tlb.read_accesses            0                       # DTB read accesses
system.cpu.itb.stage2_mmu.stage2_tlb.read_hits            0                       # DTB read hits
system.cpu.itb.stage2_mmu.stage2_tlb.read_misses            0                       # DTB read misses
system.cpu.itb.stage2_mmu.stage2_tlb.walker.walkRequestOrigin_Requested::Data            0                       # Table walker requests started/completed, data/inst
system.cpu.itb.stage2_mmu.stage2_tlb.walker.walkRequestOrigin_Requested::Inst            0                       # Table walker requests started/completed, data/inst
system.cpu.itb.stage2_mmu.stage2_tlb.walker.walkRequestOrigin_Requested::total            0                       # Table walker requests started/completed, data/inst
system.cpu.itb.stage2_mmu.stage2_tlb.walker.walkRequestOrigin_Completed::Data            0                       # Table walker requests started/completed, data/inst
system.cpu.itb.stage2_mmu.stage2_tlb.walker.walkRequestOrigin_Completed::Inst            0                       # Table walker requests started/completed, data/inst
system.cpu.itb.stage2_mmu.stage2_tlb.walker.walkRequestOrigin_Completed::total            0                       # Table walker requests started/completed, data/inst
system.cpu.itb.stage2_mmu.stage2_tlb.walker.walkRequestOrigin::total            0                       # Table walker requests started/completed, data/inst
system.cpu.itb.stage2_mmu.stage2_tlb.walker.walks            0                       # Table walker walks requested
system.cpu.itb.stage2_mmu.stage2_tlb.write_accesses            0                       # DTB write accesses
system.cpu.itb.stage2_mmu.stage2_tlb.write_hits            0                       # DTB write hits
system.cpu.itb.stage2_mmu.stage2_tlb.write_misses            0                       # DTB write misses
system.cpu.itb.walker.walkRequestOrigin_Requested::Data            0                       # Table walker requests started/completed, data/inst
system.cpu.itb.walker.walkRequestOrigin_Requested::Inst            0                       # Table walker requests started/completed, data/inst
system.cpu.itb.walker.walkRequestOrigin_Requested::total            0                       # Table walker requests started/completed, data/inst
system.cpu.itb.walker.walkRequestOrigin_Completed::Data            0                       # Table walker requests started/completed, data/inst
system.cpu.itb.walker.walkRequestOrigin_Completed::Inst            0                       # Table walker requests started/completed, data/inst
system.cpu.itb.walker.walkRequestOrigin_Completed::total            0                       # Table walker requests started/completed, data/inst
system.cpu.itb.walker.walkRequestOrigin::total            0                       # Table walker requests started/completed, data/inst
system.cpu.itb.walker.walks                         0                       # Table walker walks requested
system.cpu.itb.write_accesses                       0                       # DTB write accesses
system.cpu.itb.write_hits                           0                       # DTB write hits
system.cpu.itb.write_misses                         0                       # DTB write misses
system.cpu.numCycles                        265595160                       # number of cpu cycles simulated
system.cpu.numFetchSuspends                         0                       # Number of times Execute suspended instruction fetching
system.cpu.numWorkItemsCompleted                    0                       # number of work items this cpu completed
system.cpu.numWorkItemsStarted                      0                       # number of work items this cpu started
system.cpu.op_class_0::No_OpClass                   0      0.00%      0.00% # Class of committed instruction
system.cpu.op_class_0::IntAlu                50006868     50.01%     50.01% # Class of committed instruction
system.cpu.op_class_0::IntMult                     85      0.00%     50.01% # Class of committed instruction
system.cpu.op_class_0::IntDiv                       0      0.00%     50.01% # Class of committed instruction
system.cpu.op_class_0::FloatAdd                     0      0.00%     50.01% # Class of committed instruction
system.cpu.op_class_0::FloatCmp                     0      0.00%     50.01% # Class of committed instruction
system.cpu.op_class_0::FloatCvt                     0      0.00%     50.01% # Class of committed instruction
system.cpu.op_class_0::FloatMult                    0      0.00%     50.01% # Class of committed instruction
system.cpu.op_class_0::FloatMultAcc                 0      0.00%     50.01% # Class of committed instruction
system.cpu.op_class_0::FloatDiv                     0      0.00%     50.01% # Class of committed instruction
system.cpu.op_class_0::FloatMisc                    0      0.00%     50.01% # Class of committed instruction
system.cpu.op_class_0::FloatSqrt                    0      0.00%     50.01% # Class of committed instruction
system.cpu.op_class_0::SimdAdd                      0      0.00%     50.01% # Class of committed instruction
system.cpu.op_class_0::SimdAddAcc                   0      0.00%     50.01% # Class of committed instruction
system.cpu.op_class_0::SimdAlu                      0      0.00%     50.01% # Class of committed instruction
system.cpu.op_class_0::SimdCmp                      0      0.00%     50.01% # Class of committed instruction
system.cpu.op_class_0::SimdCvt                      0      0.00%     50.01% # Class of committed instruction
system.cpu.op_class_0::SimdMisc                     0      0.00%     50.01% # Class of committed instruction
system.cpu.op_class_0::SimdMult                     0      0.00%     50.01% # Class of committed instruction
system.cpu.op_class_0::SimdMultAcc                  0      0.00%     50.01% # Class of committed instruction
system.cpu.op_class_0::SimdShift                    0      0.00%     50.01% # Class of committed instruction
system.cpu.op_class_0::SimdShiftAcc                 0      0.00%     50.01% # Class of committed instruction
system.cpu.op_class_0::SimdDiv                      0      0.00%     50.01% # Class of committed instruction
system.cpu.op_class_0::SimdSqrt                     0      0.00%     50.01% # Class of committed instruction
system.cpu.op_class_0::SimdFloatAdd                 0      0.00%     50.01% # Class of committed instruction
system.cpu.op_class_0::SimdFloatAlu                 0      0.00%     50.01% # Class of committed instruction
system.cpu.op_class_0::SimdFloatCmp                 2      0.00%     50.01% # Class of committed instruction
system.cpu.op_class_0::SimdFloatCvt                 0      0.00%     50.01% # Class of committed instruction
system.cpu.op_class_0::SimdFloatDiv                 0      0.00%     50.01% # Class of committed instruction
system.cpu.op_class_0::SimdFloatMisc                5      0.00%     50.01% # Class of committed instruction
system.cpu.op_class_0::SimdFloatMult                0      0.00%     50.01% # Class of committed instruction
system.cpu.op_class_0::SimdFloatMultAcc             0      0.00%     50.01% # Class of committed instruction
system.cpu.op_class_0::SimdFloatSqrt                0      0.00%     50.01% # Class of committed instruction
system.cpu.op_class_0::SimdReduceAdd                0      0.00%     50.01% # Class of committed instruction
system.cpu.op_class_0::SimdReduceAlu                0      0.00%     50.01% # Class of committed instruction
system.cpu.op_class_0::SimdReduceCmp                0      0.00%     50.01% # Class of committed instruction
system.cpu.op_class_0::SimdFloatReduceAdd            0      0.00%     50.01% # Class of committed instruction
system.cpu.op_class_0::SimdFloatReduceCmp            0      0.00%     50.01% # Class of committed instruction
system.cpu.op_class_0::SimdAes                      0      0.00%     50.01% # Class of committed instruction
system.cpu.op_class_0::SimdAesMix                   0      0.00%     50.01% # Class of committed instruction
system.cpu.op_class_0::SimdSha1Hash                 0      0.00%     50.01% # Class of committed instruction
system.cpu.op_class_0::SimdSha1Hash2                0      0.00%     50.01% # Class of committed instruction
system.cpu.op_class_0::SimdSha256Hash               0      0.00%     50.01% # Class of committed instruction
system.cpu.op_class_0::SimdSha256Hash2              0      0.00%     50.01% # Class of committed instruction
system.cpu.op_class_0::SimdShaSigma2                0      0.00%     50.01% # Class of committed instruction
system.cpu.op_class_0::SimdShaSigma3                0      0.00%     50.01% # Class of committed instruction
system.cpu.op_class_0::SimdPredAlu                  0      0.00%     50.01% # Class of committed instruction
system.cpu.op_class_0::MemRead               36900855     36.90%     86.90% # Class of committed instruction
system.cpu.op_class_0::MemWrite              13095630     13.10%    100.00% # Class of committed instruction
system.cpu.op_class_0::FloatMemRead                 0      0.00%    100.00% # Class of committed instruction
system.cpu.op_class_0::FloatMemWrite                0      0.00%    100.00% # Class of committed instruction
system.cpu.op_class_0::IprAccess                    0      0.00%    100.00% # Class of committed instruction
system.cpu.op_class_0::InstPrefetch                 0      0.00%    100.00% # Class of committed instruction
system.cpu.op_class_0::total                100003445                       # Class of committed instruction
system.cpu.tickCycles                       117382079                       # Number of cycles that the object actually ticked
system.cpu.workload.numSyscalls                    19                       # Number of system calls
system.membus.snoop_filter.hit_multi_requests            0                       # Number of requests hitting in the snoop filter with multiple (>1) holders of the requested data.
system.membus.snoop_filter.hit_multi_snoops            0                       # Number of snoops hitting in the snoop filter with multiple (>1) holders of the requested data.
system.membus.snoop_filter.hit_single_requests      1480758                       # Number of requests hitting in the snoop filter with a single holder of the requested data.
system.membus.snoop_filter.hit_single_snoops            0                       # Number of snoops hitting in the snoop filter with a single holder of the requested data.
system.membus.snoop_filter.tot_requests       2969199                       # Total number of requests made to the snoop filter.
system.membus.snoop_filter.tot_snoops               0                       # Total number of snoops made to the snoop filter.
system.tol2bus.snoop_filter.hit_multi_requests        11659                       # Number of requests hitting in the snoop filter with multiple (>1) holders of the requested data.
system.tol2bus.snoop_filter.hit_multi_snoops          910                       # Number of snoops hitting in the snoop filter with multiple (>1) holders of the requested data.
system.tol2bus.snoop_filter.hit_single_requests      1542887                       # Number of requests hitting in the snoop filter with a single holder of the requested data.
system.tol2bus.snoop_filter.hit_single_snoops         4014                       # Number of snoops hitting in the snoop filter with a single holder of the requested data.
system.tol2bus.snoop_filter.tot_requests      3086682                       # Total number of requests made to the snoop filter.
system.tol2bus.snoop_filter.tot_snoops           4924                       # Total number of snoops made to the snoop filter.
system.membus.pwrStateResidencyTicks::UNDEFINED 265595160000                       # Cumulative time (in ticks) in various power states
system.membus.trans_dist::ReadResp               1505                       # Transaction distribution
system.membus.trans_dist::WritebackDirty      1479666                       # Transaction distribution
system.membus.trans_dist::CleanEvict              187                       # Transaction distribution
system.membus.trans_dist::ReadExReq           1487841                       # Transaction distribution
system.membus.trans_dist::ReadExResp          1487841                       # Transaction distribution
system.membus.trans_dist::ReadSharedReq          1505                       # Transaction distribution
system.membus.pkt_count_system.l2.mem_side::system.mem_ctrls.port      4458545                       # Packet count per connected master and slave (bytes)
system.membus.pkt_count::total                4458545                       # Packet count per connected master and slave (bytes)
system.membus.pkt_size_system.l2.mem_side::system.mem_ctrls.port    190016768                       # Cumulative packet size per connected master and slave (bytes)
system.membus.pkt_size::total               190016768                       # Cumulative packet size per connected master and slave (bytes)
system.membus.snoops                                0                       # Total snoops (count)
system.membus.snoopTraffic                          0                       # Total snoop traffic (bytes)
system.membus.snoop_fanout::samples           1489346                       # Request fanout histogram
system.membus.snoop_fanout::mean                    0                       # Request fanout histogram
system.membus.snoop_fanout::stdev                   0                       # Request fanout histogram
system.membus.snoop_fanout::underflows              0      0.00%      0.00% # Request fanout histogram
system.membus.snoop_fanout::0                 1489346    100.00%    100.00% # Request fanout histogram
system.membus.snoop_fanout::1                       0      0.00%    100.00% # Request fanout histogram
system.membus.snoop_fanout::overflows               0      0.00%    100.00% # Request fanout histogram
system.membus.snoop_fanout::min_value               0                       # Request fanout histogram
system.membus.snoop_fanout::max_value               0                       # Request fanout histogram
system.membus.snoop_fanout::total             1489346                       # Request fanout histogram
system.membus.respLayer1.occupancy         7839916000                       # Layer occupancy (ticks)
system.membus.respLayer1.utilization              3.0                       # Layer utilization (%)
system.membus.reqLayer0.occupancy          8887863000                       # Layer occupancy (ticks)
system.membus.reqLayer0.utilization               3.3                       # Layer utilization (%)
system.tol2bus.pwrStateResidencyTicks::UNDEFINED 265595160000                       # Cumulative time (in ticks) in various power states
system.tol2bus.trans_dist::ReadResp             32121                       # Transaction distribution
system.tol2bus.trans_dist::WritebackDirty      3010633                       # Transaction distribution
system.tol2bus.trans_dist::WritebackClean          167                       # Transaction distribution
system.tol2bus.trans_dist::CleanEvict           16860                       # Transaction distribution
system.tol2bus.trans_dist::ReadExReq          1511675                       # Transaction distribution
system.tol2bus.trans_dist::ReadExResp         1511674                       # Transaction distribution
system.tol2bus.trans_dist::ReadCleanReq           564                       # Transaction distribution
system.tol2bus.trans_dist::ReadSharedReq        31557                       # Transaction distribution
system.tol2bus.pkt_count_system.cpu.icache.mem_side::system.l2.cpu_side         1295                       # Packet count per connected master and slave (bytes)
system.tol2bus.pkt_count_system.cpu.dcache.mem_side::system.l2.cpu_side      4629182                       # Packet count per connected master and slave (bytes)
system.tol2bus.pkt_count::total               4630477                       # Packet count per connected master and slave (bytes)
system.tol2bus.pkt_size_system.cpu.icache.mem_side::system.l2.cpu_side        46784                       # Cumulative packet size per connected master and slave (bytes)
system.tol2bus.pkt_size_system.cpu.dcache.mem_side::system.l2.cpu_side    196748672                       # Cumulative packet size per connected master and slave (bytes)
system.tol2bus.pkt_size::total              196795456                       # Cumulative packet size per connected master and slave (bytes)
system.tol2bus.snoops                         1484774                       # Total snoops (count)
system.tol2bus.snoopTraffic                  94698624                       # Total snoop traffic (bytes)
system.tol2bus.snoop_fanout::samples          3028570                       # Request fanout histogram
system.tol2bus.snoop_fanout::mean            0.005776                       # Request fanout histogram
system.tol2bus.snoop_fanout::stdev           0.079649                       # Request fanout histogram
system.tol2bus.snoop_fanout::underflows             0      0.00%      0.00% # Request fanout histogram
system.tol2bus.snoop_fanout::0                3011986     99.45%     99.45% # Request fanout histogram
system.tol2bus.snoop_fanout::1                  15674      0.52%     99.97% # Request fanout histogram
system.tol2bus.snoop_fanout::2                    910      0.03%    100.00% # Request fanout histogram
system.tol2bus.snoop_fanout::overflows              0      0.00%    100.00% # Request fanout histogram
system.tol2bus.snoop_fanout::min_value              0                       # Request fanout histogram
system.tol2bus.snoop_fanout::max_value              2                       # Request fanout histogram
system.tol2bus.snoop_fanout::total            3028570                       # Request fanout histogram
system.tol2bus.reqLayer0.occupancy         6148950000                       # Layer occupancy (ticks)
system.tol2bus.reqLayer0.utilization              2.3                       # Layer utilization (%)
system.tol2bus.respLayer1.occupancy        4629693999                       # Layer occupancy (ticks)
system.tol2bus.respLayer1.utilization             1.7                       # Layer utilization (%)
system.tol2bus.respLayer0.occupancy           1692999                       # Layer occupancy (ticks)
system.tol2bus.respLayer0.utilization             0.0                       # Layer utilization (%)
system.voltage_domain.voltage                       1                       # Voltage in Volts
system.clk_domain.clock                          1000                       # Clock period in ticks
system.l2.pwrStateResidencyTicks::UNDEFINED 265595160000                       # Cumulative time (in ticks) in various power states
system.l2.demand_hits::.cpu.inst                   69                       # number of demand (read+write) hits
system.l2.demand_hits::.cpu.data                54378                       # number of demand (read+write) hits
system.l2.demand_hits::total                    54447                       # number of demand (read+write) hits
system.l2.overall_hits::.cpu.inst                  69                       # number of overall hits
system.l2.overall_hits::.cpu.data               54378                       # number of overall hits
system.l2.overall_hits::total                   54447                       # number of overall hits
system.l2.demand_misses::.cpu.inst                495                       # number of demand (read+write) misses
system.l2.demand_misses::.cpu.data            1488854                       # number of demand (read+write) misses
system.l2.demand_misses::total                1489349                       # number of demand (read+write) misses
system.l2.overall_misses::.cpu.inst               495                       # number of overall misses
system.l2.overall_misses::.cpu.data           1488854                       # number of overall misses
system.l2.overall_misses::total               1489349                       # number of overall misses
system.l2.demand_miss_latency::.cpu.inst     47788000                       # number of demand (read+write) miss cycles
system.l2.demand_miss_latency::.cpu.data 151575418000                       # number of demand (read+write) miss cycles
system.l2.demand_miss_latency::total     151623206000                       # number of demand (read+write) miss cycles
system.l2.overall_miss_latency::.cpu.inst     47788000                       # number of overall miss cycles
system.l2.overall_miss_latency::.cpu.data 151575418000                       # number of overall miss cycles
system.l2.overall_miss_latency::total    151623206000                       # number of overall miss cycles
system.l2.demand_accesses::.cpu.inst              564                       # number of demand (read+write) accesses
system.l2.demand_accesses::.cpu.data          1543232                       # number of demand (read+write) accesses
system.l2.demand_accesses::total              1543796                       # number of demand (read+write) accesses
system.l2.overall_accesses::.cpu.inst             564                       # number of overall (read+write) accesses
system.l2.overall_accesses::.cpu.data         1543232                       # number of overall (read+write) accesses
system.l2.overall_accesses::total             1543796                       # number of overall (read+write) accesses
system.l2.demand_miss_rate::.cpu.inst        0.877660                       # miss rate for demand accesses
system.l2.demand_miss_rate::.cpu.data        0.964764                       # miss rate for demand accesses
system.l2.demand_miss_rate::total            0.964732                       # miss rate for demand accesses
system.l2.overall_miss_rate::.cpu.inst       0.877660                       # miss rate for overall accesses
system.l2.overall_miss_rate::.cpu.data       0.964764                       # miss rate for overall accesses
system.l2.overall_miss_rate::total           0.964732                       # miss rate for overall accesses
system.l2.demand_avg_miss_latency::.cpu.inst 96541.414141                       # average overall miss latency
system.l2.demand_avg_miss_latency::.cpu.data 101806.770845                       # average overall miss latency
system.l2.demand_avg_miss_latency::total 101805.020851                       # average overall miss latency
system.l2.overall_avg_miss_latency::.cpu.inst 96541.414141                       # average overall miss latency
system.l2.overall_avg_miss_latency::.cpu.data 101806.770845                       # average overall miss latency
system.l2.overall_avg_miss_latency::total 101805.020851                       # average overall miss latency
system.l2.blocked_cycles::no_mshrs                  0                       # number of cycles access was blocked
system.l2.blocked_cycles::no_targets                0                       # number of cycles access was blocked
system.l2.blocked::no_mshrs                         0                       # number of cycles access was blocked
system.l2.blocked::no_targets                       0                       # number of cycles access was blocked
system.l2.avg_blocked_cycles::no_mshrs            nan                       # average number of cycles each access was blocked
system.l2.avg_blocked_cycles::no_targets          nan                       # average number of cycles each access was blocked
system.l2.writebacks::.writebacks             1479666                       # number of writebacks
system.l2.writebacks::total                   1479666                       # number of writebacks
system.l2.demand_mshr_hits::.cpu.inst               1                       # number of demand (read+write) MSHR hits
system.l2.demand_mshr_hits::.cpu.data               1                       # number of demand (read+write) MSHR hits
system.l2.demand_mshr_hits::total                   2                       # number of demand (read+write) MSHR hits
system.l2.overall_mshr_hits::.cpu.inst              1                       # number of overall MSHR hits
system.l2.overall_mshr_hits::.cpu.data              1                       # number of overall MSHR hits
system.l2.overall_mshr_hits::total                  2                       # number of overall MSHR hits
system.l2.demand_mshr_misses::.cpu.inst           494                       # number of demand (read+write) MSHR misses
system.l2.demand_mshr_misses::.cpu.data       1488853                       # number of demand (read+write) MSHR misses
system.l2.demand_mshr_misses::total           1489347                       # number of demand (read+write) MSHR misses
system.l2.overall_mshr_misses::.cpu.inst          494                       # number of overall MSHR misses
system.l2.overall_mshr_misses::.cpu.data      1488853                       # number of overall MSHR misses
system.l2.overall_mshr_misses::total          1489347                       # number of overall MSHR misses
system.l2.demand_mshr_miss_latency::.cpu.inst     37806000                       # number of demand (read+write) MSHR miss cycles
system.l2.demand_mshr_miss_latency::.cpu.data 121798305000                       # number of demand (read+write) MSHR miss cycles
system.l2.demand_mshr_miss_latency::total 121836111000                       # number of demand (read+write) MSHR miss cycles
system.l2.overall_mshr_miss_latency::.cpu.inst     37806000                       # number of overall MSHR miss cycles
system.l2.overall_mshr_miss_latency::.cpu.data 121798305000                       # number of overall MSHR miss cycles
system.l2.overall_mshr_miss_latency::total 121836111000                       # number of overall MSHR miss cycles
system.l2.demand_mshr_miss_rate::.cpu.inst     0.875887                       # mshr miss rate for demand accesses
system.l2.demand_mshr_miss_rate::.cpu.data     0.964763                       # mshr miss rate for demand accesses
system.l2.demand_mshr_miss_rate::total       0.964730                       # mshr miss rate for demand accesses
system.l2.overall_mshr_miss_rate::.cpu.inst     0.875887                       # mshr miss rate for overall accesses
system.l2.overall_mshr_miss_rate::.cpu.data     0.964763                       # mshr miss rate for overall accesses
system.l2.overall_mshr_miss_rate::total      0.964730                       # mshr miss rate for overall accesses
system.l2.demand_avg_mshr_miss_latency::.cpu.inst 76530.364372                       # average overall mshr miss latency
system.l2.demand_avg_mshr_miss_latency::.cpu.data 81806.803627                       # average overall mshr miss latency
system.l2.demand_avg_mshr_miss_latency::total 81805.053490                       # average overall mshr miss latency
system.l2.overall_avg_mshr_miss_latency::.cpu.inst 76530.364372                       # average overall mshr miss latency
system.l2.overall_avg_mshr_miss_latency::.cpu.data 81806.803627                       # average overall mshr miss latency
system.l2.overall_avg_mshr_miss_latency::total 81805.053490                       # average overall mshr miss latency
system.l2.replacements                        1484774                       # number of replacements
system.l2.WritebackDirty_hits::.writebacks      1530967                       # number of WritebackDirty hits
system.l2.WritebackDirty_hits::total          1530967                       # number of WritebackDirty hits
system.l2.WritebackDirty_accesses::.writebacks      1530967                       # number of WritebackDirty accesses(hits+misses)
system.l2.WritebackDirty_accesses::total      1530967                       # number of WritebackDirty accesses(hits+misses)
system.l2.WritebackClean_hits::.writebacks          153                       # number of WritebackClean hits
system.l2.WritebackClean_hits::total              153                       # number of WritebackClean hits
system.l2.WritebackClean_accesses::.writebacks          153                       # number of WritebackClean accesses(hits+misses)
system.l2.WritebackClean_accesses::total          153                       # number of WritebackClean accesses(hits+misses)
system.l2.CleanEvict_mshr_misses::.writebacks            3                       # number of CleanEvict MSHR misses
system.l2.CleanEvict_mshr_misses::total             3                       # number of CleanEvict MSHR misses
system.l2.CleanEvict_mshr_miss_rate::.writebacks          inf                       # mshr miss rate for CleanEvict accesses
system.l2.CleanEvict_mshr_miss_rate::total          inf                       # mshr miss rate for CleanEvict accesses
system.l2.ReadExReq_hits::.cpu.data             23833                       # number of ReadExReq hits
system.l2.ReadExReq_hits::total                 23833                       # number of ReadExReq hits
system.l2.ReadExReq_misses::.cpu.data         1487842                       # number of ReadExReq misses
system.l2.ReadExReq_misses::total             1487842                       # number of ReadExReq misses
system.l2.ReadExReq_miss_latency::.cpu.data 151464171000                       # number of ReadExReq miss cycles
system.l2.ReadExReq_miss_latency::total  151464171000                       # number of ReadExReq miss cycles
system.l2.ReadExReq_accesses::.cpu.data       1511675                       # number of ReadExReq accesses(hits+misses)
system.l2.ReadExReq_accesses::total           1511675                       # number of ReadExReq accesses(hits+misses)
system.l2.ReadExReq_miss_rate::.cpu.data     0.984234                       # miss rate for ReadExReq accesses
system.l2.ReadExReq_miss_rate::total         0.984234                       # miss rate for ReadExReq accesses
system.l2.ReadExReq_avg_miss_latency::.cpu.data 101801.247041                       # average ReadExReq miss latency
system.l2.ReadExReq_avg_miss_latency::total 101801.247041                       # average ReadExReq miss latency
system.l2.ReadExReq_mshr_misses::.cpu.data      1487842                       # number of ReadExReq MSHR misses
system.l2.ReadExReq_mshr_misses::total        1487842                       # number of ReadExReq MSHR misses
system.l2.ReadExReq_mshr_miss_latency::.cpu.data 121707351000                       # number of ReadExReq MSHR miss cycles
system.l2.ReadExReq_mshr_miss_latency::total 121707351000                       # number of ReadExReq MSHR miss cycles
system.l2.ReadExReq_mshr_miss_rate::.cpu.data     0.984234                       # mshr miss rate for ReadExReq accesses
system.l2.ReadExReq_mshr_miss_rate::total     0.984234                       # mshr miss rate for ReadExReq accesses
system.l2.ReadExReq_avg_mshr_miss_latency::.cpu.data 81801.260483                       # average ReadExReq mshr miss latency
system.l2.ReadExReq_avg_mshr_miss_latency::total 81801.260483                       # average ReadExReq mshr miss latency
system.l2.ReadCleanReq_hits::.cpu.inst             69                       # number of ReadCleanReq hits
system.l2.ReadCleanReq_hits::total                 69                       # number of ReadCleanReq hits
system.l2.ReadCleanReq_misses::.cpu.inst          495                       # number of ReadCleanReq misses
system.l2.ReadCleanReq_misses::total              495                       # number of ReadCleanReq misses
system.l2.ReadCleanReq_miss_latency::.cpu.inst     47788000                       # number of ReadCleanReq miss cycles
system.l2.ReadCleanReq_miss_latency::total     47788000                       # number of ReadCleanReq miss cycles
system.l2.ReadCleanReq_accesses::.cpu.inst          564                       # number of ReadCleanReq accesses(hits+misses)
system.l2.ReadCleanReq_accesses::total            564                       # number of ReadCleanReq accesses(hits+misses)
system.l2.ReadCleanReq_miss_rate::.cpu.inst     0.877660                       # miss rate for ReadCleanReq accesses
system.l2.ReadCleanReq_miss_rate::total      0.877660                       # miss rate for ReadCleanReq accesses
system.l2.ReadCleanReq_avg_miss_latency::.cpu.inst 96541.414141                       # average ReadCleanReq miss latency
system.l2.ReadCleanReq_avg_miss_latency::total 96541.414141                       # average ReadCleanReq miss latency
system.l2.ReadCleanReq_mshr_hits::.cpu.inst            1                       # number of ReadCleanReq MSHR hits
system.l2.ReadCleanReq_mshr_hits::total             1                       # number of ReadCleanReq MSHR hits
system.l2.ReadCleanReq_mshr_misses::.cpu.inst          494                       # number of ReadCleanReq MSHR misses
system.l2.ReadCleanReq_mshr_misses::total          494                       # number of ReadCleanReq MSHR misses
system.l2.ReadCleanReq_mshr_miss_latency::.cpu.inst     37806000                       # number of ReadCleanReq MSHR miss cycles
system.l2.ReadCleanReq_mshr_miss_latency::total     37806000                       # number of ReadCleanReq MSHR miss cycles
system.l2.ReadCleanReq_mshr_miss_rate::.cpu.inst     0.875887                       # mshr miss rate for ReadCleanReq accesses
system.l2.ReadCleanReq_mshr_miss_rate::total     0.875887                       # mshr miss rate for ReadCleanReq accesses
system.l2.ReadCleanReq_avg_mshr_miss_latency::.cpu.inst 76530.364372                       # average ReadCleanReq mshr miss latency
system.l2.ReadCleanReq_avg_mshr_miss_latency::total 76530.364372                       # average ReadCleanReq mshr miss latency
system.l2.ReadSharedReq_hits::.cpu.data         30545                       # number of ReadSharedReq hits
system.l2.ReadSharedReq_hits::total             30545                       # number of ReadSharedReq hits
system.l2.ReadSharedReq_misses::.cpu.data         1012                       # number of ReadSharedReq misses
system.l2.ReadSharedReq_misses::total            1012                       # number of ReadSharedReq misses
system.l2.ReadSharedReq_miss_latency::.cpu.data    111247000                       # number of ReadSharedReq miss cycles
system.l2.ReadSharedReq_miss_latency::total    111247000                       # number of ReadSharedReq miss cycles
system.l2.ReadSharedReq_accesses::.cpu.data        31557                       # number of ReadSharedReq accesses(hits+misses)
system.l2.ReadSharedReq_accesses::total         31557                       # number of ReadSharedReq accesses(hits+misses)
system.l2.ReadSharedReq_miss_rate::.cpu.data     0.032069                       # miss rate for ReadSharedReq accesses
system.l2.ReadSharedReq_miss_rate::total     0.032069                       # miss rate for ReadSharedReq accesses
system.l2.ReadSharedReq_avg_miss_latency::.cpu.data 109927.865613                       # average ReadSharedReq miss latency
system.l2.ReadSharedReq_avg_miss_latency::total 109927.865613                       # average ReadSharedReq miss latency
system.l2.ReadSharedReq_mshr_hits::.cpu.data            1                       # number of ReadSharedReq MSHR hits
system.l2.ReadSharedReq_mshr_hits::total            1                       # number of ReadSharedReq MSHR hits
system.l2.ReadSharedReq_mshr_misses::.cpu.data         1011                       # number of ReadSharedReq MSHR misses
system.l2.ReadSharedReq_mshr_misses::total         1011                       # number of ReadSharedReq MSHR misses
system.l2.ReadSharedReq_mshr_miss_latency::.cpu.data     90954000                       # number of ReadSharedReq MSHR miss cycles
system.l2.ReadSharedReq_mshr_miss_latency::total     90954000                       # number of ReadSharedReq MSHR miss cycles
system.l2.ReadSharedReq_mshr_miss_rate::.cpu.data     0.032037                       # mshr miss rate for ReadSharedReq accesses
system.l2.ReadSharedReq_mshr_miss_rate::total     0.032037                       # mshr miss rate for ReadSharedReq accesses
system.l2.ReadSharedReq_avg_mshr_miss_latency::.cpu.data 89964.391691                       # average ReadSharedReq mshr miss latency
system.l2.ReadSharedReq_avg_mshr_miss_latency::total 89964.391691                       # average ReadSharedReq mshr miss latency
system.l2.tags.pwrStateResidencyTicks::UNDEFINED 265595160000                       # Cumulative time (in ticks) in various power states
system.l2.tags.tagsinuse                  8168.954251                       # Cycle average of tags in use
system.l2.tags.total_refs                     3075017                       # Total number of references to valid blocks.
system.l2.tags.sampled_refs                   1492966                       # Sample count of references to valid blocks.
system.l2.tags.avg_refs                      2.059670                       # Average number of references to valid blocks.
system.l2.tags.warmup_cycle                     87000                       # Cycle when the warmup percentage was hit.
system.l2.tags.occ_blocks::.writebacks       2.054175                       # Average occupied blocks per requestor
system.l2.tags.occ_blocks::.cpu.inst         0.665080                       # Average occupied blocks per requestor
system.l2.tags.occ_blocks::.cpu.data      8166.234996                       # Average occupied blocks per requestor
system.l2.tags.occ_percent::.writebacks      0.000251                       # Average percentage of cache occupancy
system.l2.tags.occ_percent::.cpu.inst        0.000081                       # Average percentage of cache occupancy
system.l2.tags.occ_percent::.cpu.data        0.996855                       # Average percentage of cache occupancy
system.l2.tags.occ_percent::total            0.997187                       # Average percentage of cache occupancy
system.l2.tags.occ_task_id_blocks::1024          8192                       # Occupied blocks per task id
system.l2.tags.age_task_id_blocks_1024::0           57                       # Occupied blocks per task id
system.l2.tags.age_task_id_blocks_1024::1          506                       # Occupied blocks per task id
system.l2.tags.age_task_id_blocks_1024::2         5039                       # Occupied blocks per task id
system.l2.tags.age_task_id_blocks_1024::3         2590                       # Occupied blocks per task id
system.l2.tags.occ_task_id_percent::1024            1                       # Percentage of cache occupancy per task id
system.l2.tags.tag_accesses                   4567989                       # Number of tag accesses
system.l2.tags.data_accesses                  4567989                       # Number of data accesses
system.cpu_voltage_domain.voltage                   1                       # Voltage in Volts
system.mem_ctrls.pwrStateResidencyTicks::UNDEFINED 265595160000                       # Cumulative time (in ticks) in various power states
system.mem_ctrls.bytes_read::.cpu.inst          31616                       # Number of bytes read from this memory
system.mem_ctrls.bytes_read::.cpu.data       95286528                       # Number of bytes read from this memory
system.mem_ctrls.bytes_read::total           95318144                       # Number of bytes read from this memory
system.mem_ctrls.bytes_inst_read::.cpu.inst        31616                       # Number of instructions bytes read from this memory
system.mem_ctrls.bytes_inst_read::total         31616                       # Number of instructions bytes read from this memory
system.mem_ctrls.bytes_written::.writebacks     94698624                       # Number of bytes written to this memory
system.mem_ctrls.bytes_written::total        94698624                       # Number of bytes written to this memory
system.mem_ctrls.num_reads::.cpu.inst             494                       # Number of read requests responded to by this memory
system.mem_ctrls.num_reads::.cpu.data         1488852                       # Number of read requests responded to by this memory
system.mem_ctrls.num_reads::total             1489346                       # Number of read requests responded to by this memory
system.mem_ctrls.num_writes::.writebacks      1479666                       # Number of write requests responded to by this memory
system.mem_ctrls.num_writes::total            1479666                       # Number of write requests responded to by this memory
system.mem_ctrls.bw_read::.cpu.inst            119038                       # Total read bandwidth from this memory (bytes/s)
system.mem_ctrls.bw_read::.cpu.data         358766056                       # Total read bandwidth from this memory (bytes/s)
system.mem_ctrls.bw_read::total             358885094                       # Total read bandwidth from this memory (bytes/s)
system.mem_ctrls.bw_inst_read::.cpu.inst       119038                       # Instruction read bandwidth from this memory (bytes/s)
system.mem_ctrls.bw_inst_read::total           119038                       # Instruction read bandwidth from this memory (bytes/s)
system.mem_ctrls.bw_write::.writebacks      356552522                       # Write bandwidth from this memory (bytes/s)
system.mem_ctrls.bw_write::total            356552522                       # Write bandwidth from this memory (bytes/s)
system.mem_ctrls.bw_total::.writebacks      356552522                       # Total bandwidth to/from this memory (bytes/s)
system.mem_ctrls.bw_total::.cpu.inst           119038                       # Total bandwidth to/from this memory (bytes/s)
system.mem_ctrls.bw_total::.cpu.data        358766056                       # Total bandwidth to/from this memory (bytes/s)
system.mem_ctrls.bw_total::total            715437616                       # Total bandwidth to/from this memory (bytes/s)
system.mem_ctrls.avgPriority_.writebacks::samples   1479666.00                       # Average QoS priority value for accepted requests
system.mem_ctrls.avgPriority_.cpu.inst::samples       494.00                       # Average QoS priority value for accepted requests
system.mem_ctrls.avgPriority_.cpu.data::samples   1488852.00                       # Average QoS priority value for accepted requests
system.mem_ctrls.priorityMinLatency      0.000000018750                       # per QoS priority minimum request to response latency (s)
system.mem_ctrls.priorityMaxLatency      0.000752100500                       # per QoS priority maximum request to response latency (s)
system.mem_ctrls.numReadWriteTurnArounds        82311                       # Number of turnarounds from READ to WRITE
system.mem_ctrls.numWriteReadTurnArounds        82311                       # Number of turnarounds from WRITE to READ
system.mem_ctrls.numStayReadState             4461774                       # Number of times bus staying in READ state
system.mem_ctrls.numStayWriteState            1401792                       # Number of times bus staying in WRITE state
system.mem_ctrls.readReqs                     1489346                       # Number of read requests accepted
system.mem_ctrls.writeReqs                    1479666                       # Number of write requests accepted
system.mem_ctrls.readBursts                   1489346                       # Number of DRAM read bursts, including those serviced by the write queue
system.mem_ctrls.writeBursts                  1479666                       # Number of DRAM write bursts, including those merged in the write queue
system.mem_ctrls.servicedByWrQ                      0                       # Number of DRAM read bursts serviced by the write queue
system.mem_ctrls.mergedWrBursts                     0                       # Number of DRAM write bursts merged with an existing one
system.mem_ctrls.neitherReadNorWriteReqs            0                       # Number of requests that are neither read nor write
system.mem_ctrls.perBankRdBursts::0             93902                       # Per bank write bursts
system.mem_ctrls.perBankRdBursts::1             92977                       # Per bank write bursts
system.mem_ctrls.perBankRdBursts::2             93116                       # Per bank write bursts
system.mem_ctrls.perBankRdBursts::3             93086                       # Per bank write bursts
system.mem_ctrls.perBankRdBursts::4             93097                       # Per bank write bursts
system.mem_ctrls.perBankRdBursts::5             93064                       # Per bank write bursts
system.mem_ctrls.perBankRdBursts::6             93082                       # Per bank write bursts
system.mem_ctrls.perBankRdBursts::7             93068                       # Per bank write bursts
system.mem_ctrls.perBankRdBursts::8             93126                       # Per bank write bursts
system.mem_ctrls.perBankRdBursts::9             93038                       # Per bank write bursts
system.mem_ctrls.perBankRdBursts::10            92963                       # Per bank write bursts
system.mem_ctrls.perBankRdBursts::11            92954                       # Per bank write bursts
system.mem_ctrls.perBankRdBursts::12            93013                       # Per bank write bursts
system.mem_ctrls.perBankRdBursts::13            92931                       # Per bank write bursts
system.mem_ctrls.perBankRdBursts::14            92946                       # Per bank write bursts
system.mem_ctrls.perBankRdBursts::15            92983                       # Per bank write bursts
system.mem_ctrls.perBankWrBursts::0             92441                       # Per bank write bursts
system.mem_ctrls.perBankWrBursts::1             92431                       # Per bank write bursts
system.mem_ctrls.perBankWrBursts::2             92484                       # Per bank write bursts
system.mem_ctrls.perBankWrBursts::3             92545                       # Per bank write bursts
system.mem_ctrls.perBankWrBursts::4             92544                       # Per bank write bursts
system.mem_ctrls.perBankWrBursts::5             92544                       # Per bank write bursts
system.mem_ctrls.perBankWrBursts::6             92544                       # Per bank write bursts
system.mem_ctrls.perBankWrBursts::7             92544                       # Per bank write bursts
system.mem_ctrls.perBankWrBursts::8             92544                       # Per bank write bursts
system.mem_ctrls.perBankWrBursts::9             92477                       # Per bank write bursts
system.mem_ctrls.perBankWrBursts::10            92416                       # Per bank write bursts
system.mem_ctrls.perBankWrBursts::11            92416                       # Per bank write bursts
system.mem_ctrls.perBankWrBursts::12            92416                       # Per bank write bursts
system.mem_ctrls.perBankWrBursts::13            92416                       # Per bank write bursts
system.mem_ctrls.perBankWrBursts::14            92420                       # Per bank write bursts
system.mem_ctrls.perBankWrBursts::15            92455                       # Per bank write bursts
system.mem_ctrls.avgRdQLen                       1.00                       # Average read queue length when enqueuing
system.mem_ctrls.avgWrQLen                      24.74                       # Average write queue length when enqueuing
system.mem_ctrls.totQLat                  17559222000                       # Total ticks spent queuing
system.mem_ctrls.totBusLat                 7446730000                       # Total ticks spent in databus transfers
system.mem_ctrls.totMemAccLat             45484459500                       # Total ticks spent from burst creation until serviced by the DRAM
system.mem_ctrls.avgQLat                     11789.89                       # Average queueing delay per DRAM burst
system.mem_ctrls.avgBusLat                    5000.00                       # Average bus latency per DRAM burst
system.mem_ctrls.avgMemAccLat                30539.89                       # Average memory access latency per DRAM burst
system.mem_ctrls.numRdRetry                         0                       # Number of times read queue was full causing retry
system.mem_ctrls.numWrRetry                         0                       # Number of times write queue was full causing retry
system.mem_ctrls.readRowHits                  1314654                       # Number of row buffer hits during reads
system.mem_ctrls.writeRowHits                 1313988                       # Number of row buffer hits during writes
system.mem_ctrls.readRowHitRate                 88.27                       # Row buffer hit rate for reads
system.mem_ctrls.writeRowHitRate                88.80                       # Row buffer hit rate for writes
system.mem_ctrls.readPktSize::0                     0                       # Read request sizes (log2)
system.mem_ctrls.readPktSize::1                     0                       # Read request sizes (log2)
system.mem_ctrls.readPktSize::2                     0                       # Read request sizes (log2)
system.mem_ctrls.readPktSize::3                     0                       # Read request sizes (log2)
system.mem_ctrls.readPktSize::4                     0                       # Read request sizes (log2)
system.mem_ctrls.readPktSize::5                     0                       # Read request sizes (log2)
system.mem_ctrls.readPktSize::6               1489346                       # Read request sizes (log2)
system.mem_ctrls.writePktSize::0                    0                       # Write request sizes (log2)
system.mem_ctrls.writePktSize::1                    0                       # Write request sizes (log2)
system.mem_ctrls.writePktSize::2                    0                       # Write request sizes (log2)
system.mem_ctrls.writePktSize::3                    0                       # Write request sizes (log2)
system.mem_ctrls.writePktSize::4                    0                       # Write request sizes (log2)
system.mem_ctrls.writePktSize::5                    0                       # Write request sizes (log2)
system.mem_ctrls.writePktSize::6              1479666                       # Write request sizes (log2)
system.mem_ctrls.rdQLenPdf::0                 1489229                       # What read queue length does an incoming req see
system.mem_ctrls.rdQLenPdf::1                     111                       # What read queue length does an incoming req see
system.mem_ctrls.rdQLenPdf::2                       5                       # What read queue length does an incoming req see
system.mem_ctrls.rdQLenPdf::3                       1                       # What read queue length does an incoming req see
system.mem_ctrls.rdQLenPdf::4                       0                       # What read queue length does an incoming req see
system.mem_ctrls.rdQLenPdf::5                       0                       # What read queue length does an incoming req see
system.mem_ctrls.rdQLenPdf::6                       0                       # What read queue length does an incoming req see
system.mem_ctrls.rdQLenPdf::7                       0                       # What read queue length does an incoming req see
system.mem_ctrls.rdQLenPdf::8                       0                       # What read queue length does an incoming req see
system.mem_ctrls.rdQLenPdf::9                       0                       # What read queue length does an incoming req see
system.mem_ctrls.rdQLenPdf::10                      0                       # What read queue length does an incoming req see
system.mem_ctrls.rdQLenPdf::11                      0                       # What read queue length does an incoming req see
system.mem_ctrls.rdQLenPdf::12                      0                       # What read queue length does an incoming req see
system.mem_ctrls.rdQLenPdf::13                      0                       # What read queue length does an incoming req see
system.mem_ctrls.rdQLenPdf::14                      0                       # What read queue length does an incoming req see
system.mem_ctrls.rdQLenPdf::15                      0                       # What read queue length does an incoming req see
system.mem_ctrls.rdQLenPdf::16                      0                       # What read queue length does an incoming req see
system.mem_ctrls.rdQLenPdf::17                      0                       # What read queue length does an incoming req see
system.mem_ctrls.rdQLenPdf::18                      0                       # What read queue length does an incoming req see
system.mem_ctrls.rdQLenPdf::19                      0                       # What read queue length does an incoming req see
system.mem_ctrls.rdQLenPdf::20                      0                       # What read queue length does an incoming req see
system.mem_ctrls.rdQLenPdf::21                      0                       # What read queue length does an incoming req see
system.mem_ctrls.rdQLenPdf::22                      0                       # What read queue length does an incoming req see
system.mem_ctrls.rdQLenPdf::23                      0                       # What read queue length does an incoming req see
system.mem_ctrls.rdQLenPdf::24                      0                       # What read queue length does an incoming req see
system.mem_ctrls.rdQLenPdf::25                      0                       # What read queue length does an incoming req see
system.mem_ctrls.rdQLenPdf::26                      0                       # What read queue length does an incoming req see
system.mem_ctrls.rdQLenPdf::27                      0                       # What read queue length does an incoming req see
system.mem_ctrls.rdQLenPdf::28                      0                       # What read queue length does an incoming req see
system.mem_ctrls.rdQLenPdf::29                      0                       # What read queue length does an incoming req see
system.mem_ctrls.rdQLenPdf::30                      0                       # What read queue length does an incoming req see
system.mem_ctrls.rdQLenPdf::31                      0                       # What read queue length does an incoming req see
system.mem_ctrls.wrQLenPdf::0                       1                       # What write queue length does an incoming req see
system.mem_ctrls.wrQLenPdf::1                       1                       # What write queue length does an incoming req see
system.mem_ctrls.wrQLenPdf::2                       1                       # What write queue length does an incoming req see
system.mem_ctrls.wrQLenPdf::3                       1                       # What write queue length does an incoming req see
system.mem_ctrls.wrQLenPdf::4                       1                       # What write queue length does an incoming req see
system.mem_ctrls.wrQLenPdf::5                       1                       # What write queue length does an incoming req see
system.mem_ctrls.wrQLenPdf::6                       1                       # What write queue length does an incoming req see
system.mem_ctrls.wrQLenPdf::7                       1                       # What write queue length does an incoming req see
system.mem_ctrls.wrQLenPdf::8                       1                       # What write queue length does an incoming req see
system.mem_ctrls.wrQLenPdf::9                       1                       # What write queue length does an incoming req see
system.mem_ctrls.wrQLenPdf::10                      1                       # What write queue length does an incoming req see
system.mem_ctrls.wrQLenPdf::11                      1                       # What write queue length does an incoming req see
system.mem_ctrls.wrQLenPdf::12                      1                       # What write queue length does an incoming req see
system.mem_ctrls.wrQLenPdf::13                      1                       # What write queue length does an incoming req see
system.mem_ctrls.wrQLenPdf::14                      1                       # What write queue length does an incoming req see
system.mem_ctrls.wrQLenPdf::15                  80983                       # What write queue length does an incoming req see
system.mem_ctrls.wrQLenPdf::16                  81099                       # What write queue length does an incoming req see
system.mem_ctrls.wrQLenPdf::17                  82337                       # What write queue length does an incoming req see
system.mem_ctrls.wrQLenPdf::18                  82321                       # What write queue length does an incoming req see
system.mem_ctrls.wrQLenPdf::19                  82313                       # What write queue length does an incoming req see
system.mem_ctrls.wrQLenPdf::20                  82312                       # What write queue length does an incoming req see
system.mem_ctrls.wrQLenPdf::21                  82339                       # What write queue length does an incoming req see
system.mem_ctrls.wrQLenPdf::22                  82353                       # What write queue length does an incoming req see
system.mem_ctrls.wrQLenPdf::23                  82741                       # What write queue length does an incoming req see
system.mem_ctrls.wrQLenPdf::24                  82361                       # What write queue length does an incoming req see
system.mem_ctrls.wrQLenPdf::25                  82312                       # What write queue length does an incoming req see
system.mem_ctrls.wrQLenPdf::26                  82312                       # What write queue length does an incoming req see
system.mem_ctrls.wrQLenPdf::27                  82312                       # What write queue length does an incoming req see
system.mem_ctrls.wrQLenPdf::28                  82312                       # What write queue length does an incoming req see
system.mem_ctrls.wrQLenPdf::29                  82311                       # What write queue length does an incoming req see
system.mem_ctrls.wrQLenPdf::30                  82311                       # What write queue length does an incoming req see
system.mem_ctrls.wrQLenPdf::31                  82311                       # What write queue length does an incoming req see
system.mem_ctrls.wrQLenPdf::32                  82311                       # What write queue length does an incoming req see
system.mem_ctrls.wrQLenPdf::33                      0                       # What write queue length does an incoming req see
system.mem_ctrls.wrQLenPdf::34                      0                       # What write queue length does an incoming req see
system.mem_ctrls.wrQLenPdf::35                      0                       # What write queue length does an incoming req see
system.mem_ctrls.wrQLenPdf::36                      0                       # What write queue length does an incoming req see
system.mem_ctrls.wrQLenPdf::37                      0                       # What write queue length does an incoming req see
system.mem_ctrls.wrQLenPdf::38                      0                       # What write queue length does an incoming req see
system.mem_ctrls.wrQLenPdf::39                      0                       # What write queue length does an incoming req see
system.mem_ctrls.wrQLenPdf::40                      0                       # What write queue length does an incoming req see
system.mem_ctrls.wrQLenPdf::41                      0                       # What write queue length does an incoming req see
system.mem_ctrls.wrQLenPdf::42                      0                       # What write queue length does an incoming req see
system.mem_ctrls.wrQLenPdf::43                      0                       # What write queue length does an incoming req see
system.mem_ctrls.wrQLenPdf::44                      0                       # What write queue length does an incoming req see
system.mem_ctrls.wrQLenPdf::45                      0                       # What write queue length does an incoming req see
system.mem_ctrls.wrQLenPdf::46                      0                       # What write queue length does an incoming req see
system.mem_ctrls.wrQLenPdf::47                      0                       # What write queue length does an incoming req see
system.mem_ctrls.wrQLenPdf::48                      0                       # What write queue length does an incoming req see
system.mem_ctrls.wrQLenPdf::49                      0                       # What write queue length does an incoming req see
system.mem_ctrls.wrQLenPdf::50                      0                       # What write queue length does an incoming req see
system.mem_ctrls.wrQLenPdf::51                      0                       # What write queue length does an incoming req see
system.mem_ctrls.wrQLenPdf::52                      0                       # What write queue length does an incoming req see
system.mem_ctrls.wrQLenPdf::53                      0                       # What write queue length does an incoming req see
system.mem_ctrls.wrQLenPdf::54                      0                       # What write queue length does an incoming req see
system.mem_ctrls.wrQLenPdf::55                      0                       # What write queue length does an incoming req see
system.mem_ctrls.wrQLenPdf::56                      0                       # What write queue length does an incoming req see
system.mem_ctrls.wrQLenPdf::57                      0                       # What write queue length does an incoming req see
system.mem_ctrls.wrQLenPdf::58                      0                       # What write queue length does an incoming req see
system.mem_ctrls.wrQLenPdf::59                      0                       # What write queue length does an incoming req see
system.mem_ctrls.wrQLenPdf::60                      0                       # What write queue length does an incoming req see
system.mem_ctrls.wrQLenPdf::61                      0                       # What write queue length does an incoming req see
system.mem_ctrls.wrQLenPdf::62                      0                       # What write queue length does an incoming req see
system.mem_ctrls.wrQLenPdf::63                      0                       # What write queue length does an incoming req see
system.mem_ctrls.bytesPerActivate::samples       340340                       # Bytes accessed per row activation
system.mem_ctrls.bytesPerActivate::mean    558.306446                       # Bytes accessed per row activation
system.mem_ctrls.bytesPerActivate::gmean   369.675348                       # Bytes accessed per row activation
system.mem_ctrls.bytesPerActivate::stdev   411.177519                       # Bytes accessed per row activation
system.mem_ctrls.bytesPerActivate::0-127        16241      4.77%      4.77% # Bytes accessed per row activation
system.mem_ctrls.bytesPerActivate::128-255       124849     36.68%     41.46% # Bytes accessed per row activation
system.mem_ctrls.bytesPerActivate::256-383        13010      3.82%     45.28% # Bytes accessed per row activation
system.mem_ctrls.bytesPerActivate::384-511        12675      3.72%     49.00% # Bytes accessed per row activation
system.mem_ctrls.bytesPerActivate::512-639        14865      4.37%     53.37% # Bytes accessed per row activation
system.mem_ctrls.bytesPerActivate::640-767        11184      3.29%     56.66% # Bytes accessed per row activation
system.mem_ctrls.bytesPerActivate::768-895        10254      3.01%     59.67% # Bytes accessed per row activation
system.mem_ctrls.bytesPerActivate::896-1023        11794      3.47%     63.13% # Bytes accessed per row activation
system.mem_ctrls.bytesPerActivate::1024-1151       125468     36.87%    100.00% # Bytes accessed per row activation
system.mem_ctrls.bytesPerActivate::total       340340                       # Bytes accessed per row activation
system.mem_ctrls.rdPerTurnAround::samples        82311                       # Reads before turning the bus around for writes
system.mem_ctrls.rdPerTurnAround::mean      18.093961                       # Reads before turning the bus around for writes
system.mem_ctrls.rdPerTurnAround::gmean     17.987235                       # Reads before turning the bus around for writes
system.mem_ctrls.rdPerTurnAround::stdev     23.154958                       # Reads before turning the bus around for writes
system.mem_ctrls.rdPerTurnAround::0-255         82308    100.00%    100.00% # Reads before turning the bus around for writes
system.mem_ctrls.rdPerTurnAround::512-767            1      0.00%    100.00% # Reads before turning the bus around for writes
[...]
system.cpu.icache.tags.warmup_cycle            108000                       # Cycle when the warmup percentage was hit.
system.cpu.icache.tags.occ_blocks::.cpu.inst   396.946224                       # Average occupied blocks per requestor
system.cpu.icache.tags.occ_percent::.cpu.inst     0.387643                       # Average percentage of cache occupancy
system.cpu.icache.tags.occ_percent::total     0.387643                       # Average percentage of cache occupancy
system.cpu.icache.tags.occ_task_id_blocks::1024          397                       # Occupied blocks per task id
system.cpu.icache.tags.age_task_id_blocks_1024::4          397                       # Occupied blocks per task id
system.cpu.icache.tags.occ_task_id_percent::1024     0.387695                       # Percentage of cache occupancy per task id
system.cpu.icache.tags.tag_accesses           5959857                       # Number of tag accesses
system.cpu.icache.tags.data_accesses          5959857                       # Number of data accesses
system.cpu.dtb.walker.pwrStateResidencyTicks::UNDEFINED 265595160000                       # Cumulative time (in ticks) in various power states
system.cpu.dtb.stage2_mmu.stage2_tlb.walker.pwrStateResidencyTicks::UNDEFINED 265595160000                       # Cumulative time (in ticks) in various power states
system.cpu.dcache.pwrStateResidencyTicks::UNDEFINED 265595160000                       # Cumulative time (in ticks) in various power states
system.cpu.dcache.demand_hits::.cpu.data     45752819                       # number of demand (read+write) hits
system.cpu.dcache.demand_hits::total         45752819                       # number of demand (read+write) hits
system.cpu.dcache.overall_hits::.cpu.data     45752841                       # number of overall hits
system.cpu.dcache.overall_hits::total        45752841                       # number of overall hits
system.cpu.dcache.demand_misses::.cpu.data      3053636                       # number of demand (read+write) misses
system.cpu.dcache.demand_misses::total        3053636                       # number of demand (read+write) misses
system.cpu.dcache.overall_misses::.cpu.data      3053666                       # number of overall misses
system.cpu.dcache.overall_misses::total       3053666                       # number of overall misses
system.cpu.dcache.demand_miss_latency::.cpu.data 305895496000                       # number of demand (read+write) miss cycles
system.cpu.dcache.demand_miss_latency::total 305895496000                       # number of demand (read+write) miss cycles
system.cpu.dcache.overall_miss_latency::.cpu.data 305895496000                       # number of overall miss cycles
system.cpu.dcache.overall_miss_latency::total 305895496000                       # number of overall miss cycles
system.cpu.dcache.demand_accesses::.cpu.data     48806455                       # number of demand (read+write) accesses
system.cpu.dcache.demand_accesses::total     48806455                       # number of demand (read+write) accesses
system.cpu.dcache.overall_accesses::.cpu.data     48806507                       # number of overall (read+write) accesses
system.cpu.dcache.overall_accesses::total     48806507                       # number of overall (read+write) accesses
system.cpu.dcache.demand_miss_rate::.cpu.data     0.062566                       # miss rate for demand accesses
system.cpu.dcache.demand_miss_rate::total     0.062566                       # miss rate for demand accesses
system.cpu.dcache.overall_miss_rate::.cpu.data     0.062567                       # miss rate for overall accesses
system.cpu.dcache.overall_miss_rate::total     0.062567                       # miss rate for overall accesses
system.cpu.dcache.demand_avg_miss_latency::.cpu.data 100174.184480                       # average overall miss latency
system.cpu.dcache.demand_avg_miss_latency::total 100174.184480                       # average overall miss latency
system.cpu.dcache.overall_avg_miss_latency::.cpu.data 100173.200343                       # average overall miss latency
system.cpu.dcache.overall_avg_miss_latency::total 100173.200343                       # average overall miss latency
system.cpu.dcache.blocked_cycles::no_mshrs            0                       # number of cycles access was blocked
system.cpu.dcache.blocked_cycles::no_targets            0                       # number of cycles access was blocked
system.cpu.dcache.blocked::no_mshrs                 0                       # number of cycles access was blocked
system.cpu.dcache.blocked::no_targets               0                       # number of cycles access was blocked
system.cpu.dcache.avg_blocked_cycles::no_mshrs          nan                       # average number of cycles each access was blocked
system.cpu.dcache.avg_blocked_cycles::no_targets          nan                       # average number of cycles each access was blocked
system.cpu.dcache.writebacks::.writebacks      1530967                       # number of writebacks
system.cpu.dcache.writebacks::total           1530967                       # number of writebacks
system.cpu.dcache.demand_mshr_hits::.cpu.data      1510428                       # number of demand (read+write) MSHR hits
system.cpu.dcache.demand_mshr_hits::total      1510428                       # number of demand (read+write) MSHR hits
system.cpu.dcache.overall_mshr_hits::.cpu.data      1510428                       # number of overall MSHR hits
system.cpu.dcache.overall_mshr_hits::total      1510428                       # number of overall MSHR hits
system.cpu.dcache.demand_mshr_misses::.cpu.data      1543208                       # number of demand (read+write) MSHR misses
system.cpu.dcache.demand_mshr_misses::total      1543208                       # number of demand (read+write) MSHR misses
system.cpu.dcache.overall_mshr_misses::.cpu.data      1543231                       # number of overall MSHR misses
system.cpu.dcache.overall_mshr_misses::total      1543231                       # number of overall MSHR misses
system.cpu.dcache.demand_mshr_miss_latency::.cpu.data 158785393000                       # number of demand (read+write) MSHR miss cycles
system.cpu.dcache.demand_mshr_miss_latency::total 158785393000                       # number of demand (read+write) MSHR miss cycles
system.cpu.dcache.overall_mshr_miss_latency::.cpu.data 158787935000                       # number of overall MSHR miss cycles
system.cpu.dcache.overall_mshr_miss_latency::total 158787935000                       # number of overall MSHR miss cycles
system.cpu.dcache.demand_mshr_miss_rate::.cpu.data     0.031619                       # mshr miss rate for demand accesses
system.cpu.dcache.demand_mshr_miss_rate::total     0.031619                       # mshr miss rate for demand accesses
system.cpu.dcache.overall_mshr_miss_rate::.cpu.data     0.031619                       # mshr miss rate for overall accesses
system.cpu.dcache.overall_mshr_miss_rate::total     0.031619                       # mshr miss rate for overall accesses
system.cpu.dcache.demand_avg_mshr_miss_latency::.cpu.data 102893.059782                       # average overall mshr miss latency
system.cpu.dcache.demand_avg_mshr_miss_latency::total 102893.059782                       # average overall mshr miss latency
system.cpu.dcache.overall_avg_mshr_miss_latency::.cpu.data 102893.173478                       # average overall mshr miss latency
system.cpu.dcache.overall_avg_mshr_miss_latency::total 102893.173478                       # average overall mshr miss latency
system.cpu.dcache.replacements                1542719                       # number of replacements
system.cpu.dcache.ReadReq_hits::.cpu.data     35679378                       # number of ReadReq hits
system.cpu.dcache.ReadReq_hits::total        35679378                       # number of ReadReq hits
system.cpu.dcache.ReadReq_misses::.cpu.data        31545                       # number of ReadReq misses
system.cpu.dcache.ReadReq_misses::total         31545                       # number of ReadReq misses
system.cpu.dcache.ReadReq_miss_latency::.cpu.data   1608597000                       # number of ReadReq miss cycles
system.cpu.dcache.ReadReq_miss_latency::total   1608597000                       # number of ReadReq miss cycles
system.cpu.dcache.ReadReq_accesses::.cpu.data     35710923                       # number of ReadReq accesses(hits+misses)
system.cpu.dcache.ReadReq_accesses::total     35710923                       # number of ReadReq accesses(hits+misses)
system.cpu.dcache.ReadReq_miss_rate::.cpu.data     0.000883                       # miss rate for ReadReq accesses
system.cpu.dcache.ReadReq_miss_rate::total     0.000883                       # miss rate for ReadReq accesses
system.cpu.dcache.ReadReq_avg_miss_latency::.cpu.data 50993.723252                       # average ReadReq miss latency
system.cpu.dcache.ReadReq_avg_miss_latency::total 50993.723252                       # average ReadReq miss latency
system.cpu.dcache.ReadReq_mshr_hits::.cpu.data           12                       # number of ReadReq MSHR hits
system.cpu.dcache.ReadReq_mshr_hits::total           12                       # number of ReadReq MSHR hits
system.cpu.dcache.ReadReq_mshr_misses::.cpu.data        31533                       # number of ReadReq MSHR misses
system.cpu.dcache.ReadReq_mshr_misses::total        31533                       # number of ReadReq MSHR misses
system.cpu.dcache.ReadReq_mshr_miss_latency::.cpu.data   1544612000                       # number of ReadReq MSHR miss cycles
system.cpu.dcache.ReadReq_mshr_miss_latency::total   1544612000                       # number of ReadReq MSHR miss cycles
system.cpu.dcache.ReadReq_mshr_miss_rate::.cpu.data     0.000883                       # mshr miss rate for ReadReq accesses
system.cpu.dcache.ReadReq_mshr_miss_rate::total     0.000883                       # mshr miss rate for ReadReq accesses
system.cpu.dcache.ReadReq_avg_mshr_miss_latency::.cpu.data 48983.985032                       # average ReadReq mshr miss latency
system.cpu.dcache.ReadReq_avg_mshr_miss_latency::total 48983.985032                       # average ReadReq mshr miss latency
system.cpu.dcache.WriteReq_hits::.cpu.data     10073441                       # number of WriteReq hits
system.cpu.dcache.WriteReq_hits::total       10073441                       # number of WriteReq hits
system.cpu.dcache.WriteReq_misses::.cpu.data      3022091                       # number of WriteReq misses
system.cpu.dcache.WriteReq_misses::total      3022091                       # number of WriteReq misses
system.cpu.dcache.WriteReq_miss_latency::.cpu.data 304286899000                       # number of WriteReq miss cycles
system.cpu.dcache.WriteReq_miss_latency::total 304286899000                       # number of WriteReq miss cycles
system.cpu.dcache.WriteReq_accesses::.cpu.data     13095532                       # number of WriteReq accesses(hits+misses)
system.cpu.dcache.WriteReq_accesses::total     13095532                       # number of WriteReq accesses(hits+misses)
system.cpu.dcache.WriteReq_miss_rate::.cpu.data     0.230773                       # miss rate for WriteReq accesses
system.cpu.dcache.WriteReq_miss_rate::total     0.230773                       # miss rate for WriteReq accesses
system.cpu.dcache.WriteReq_avg_miss_latency::.cpu.data 100687.536874                       # average WriteReq miss latency
system.cpu.dcache.WriteReq_avg_miss_latency::total 100687.536874                       # average WriteReq miss latency
system.cpu.dcache.WriteReq_mshr_hits::.cpu.data      1510416                       # number of WriteReq MSHR hits
system.cpu.dcache.WriteReq_mshr_hits::total      1510416                       # number of WriteReq MSHR hits
system.cpu.dcache.WriteReq_mshr_misses::.cpu.data      1511675                       # number of WriteReq MSHR misses
system.cpu.dcache.WriteReq_mshr_misses::total      1511675                       # number of WriteReq MSHR misses
system.cpu.dcache.WriteReq_mshr_miss_latency::.cpu.data 157240781000                       # number of WriteReq MSHR miss cycles
system.cpu.dcache.WriteReq_mshr_miss_latency::total 157240781000                       # number of WriteReq MSHR miss cycles
system.cpu.dcache.WriteReq_mshr_miss_rate::.cpu.data     0.115434                       # mshr miss rate for WriteReq accesses
system.cpu.dcache.WriteReq_mshr_miss_rate::total     0.115434                       # mshr miss rate for WriteReq accesses
system.cpu.dcache.WriteReq_avg_mshr_miss_latency::.cpu.data 104017.583806                       # average WriteReq mshr miss latency
system.cpu.dcache.WriteReq_avg_mshr_miss_latency::total 104017.583806                       # average WriteReq mshr miss latency
system.cpu.dcache.SoftPFReq_hits::.cpu.data           22                       # number of SoftPFReq hits
system.cpu.dcache.SoftPFReq_hits::total            22                       # number of SoftPFReq hits
system.cpu.dcache.SoftPFReq_misses::.cpu.data           30                       # number of SoftPFReq misses
system.cpu.dcache.SoftPFReq_misses::total           30                       # number of SoftPFReq misses
system.cpu.dcache.SoftPFReq_accesses::.cpu.data           52                       # number of SoftPFReq accesses(hits+misses)
system.cpu.dcache.SoftPFReq_accesses::total           52                       # number of SoftPFReq accesses(hits+misses)
system.cpu.dcache.SoftPFReq_miss_rate::.cpu.data     0.576923                       # miss rate for SoftPFReq accesses
system.cpu.dcache.SoftPFReq_miss_rate::total     0.576923                       # miss rate for SoftPFReq accesses
system.cpu.dcache.SoftPFReq_mshr_misses::.cpu.data           23                       # number of SoftPFReq MSHR misses
system.cpu.dcache.SoftPFReq_mshr_misses::total           23                       # number of SoftPFReq MSHR misses
system.cpu.dcache.SoftPFReq_mshr_miss_latency::.cpu.data      2542000                       # number of SoftPFReq MSHR miss cycles
system.cpu.dcache.SoftPFReq_mshr_miss_latency::total      2542000                       # number of SoftPFReq MSHR miss cycles
system.cpu.dcache.SoftPFReq_mshr_miss_rate::.cpu.data     0.442308                       # mshr miss rate for SoftPFReq accesses
system.cpu.dcache.SoftPFReq_mshr_miss_rate::total     0.442308                       # mshr miss rate for SoftPFReq accesses
system.cpu.dcache.SoftPFReq_avg_mshr_miss_latency::.cpu.data 110521.739130                       # average SoftPFReq mshr miss latency
system.cpu.dcache.SoftPFReq_avg_mshr_miss_latency::total 110521.739130                       # average SoftPFReq mshr miss latency
system.cpu.dcache.LoadLockedReq_hits::.cpu.data           13                       # number of LoadLockedReq hits
system.cpu.dcache.LoadLockedReq_hits::total           13                       # number of LoadLockedReq hits
system.cpu.dcache.LoadLockedReq_misses::.cpu.data            1                       # number of LoadLockedReq misses
system.cpu.dcache.LoadLockedReq_misses::total            1                       # number of LoadLockedReq misses
system.cpu.dcache.LoadLockedReq_miss_latency::.cpu.data        95000                       # number of LoadLockedReq miss cycles
system.cpu.dcache.LoadLockedReq_miss_latency::total        95000                       # number of LoadLockedReq miss cycles
system.cpu.dcache.LoadLockedReq_accesses::.cpu.data           14                       # number of LoadLockedReq accesses(hits+misses)
system.cpu.dcache.LoadLockedReq_accesses::total           14                       # number of LoadLockedReq accesses(hits+misses)
system.cpu.dcache.LoadLockedReq_miss_rate::.cpu.data     0.071429                       # miss rate for LoadLockedReq accesses
system.cpu.dcache.LoadLockedReq_miss_rate::total     0.071429                       # miss rate for LoadLockedReq accesses
system.cpu.dcache.LoadLockedReq_avg_miss_latency::.cpu.data        95000                       # average LoadLockedReq miss latency
system.cpu.dcache.LoadLockedReq_avg_miss_latency::total        95000                       # average LoadLockedReq miss latency
system.cpu.dcache.LoadLockedReq_mshr_misses::.cpu.data            1                       # number of LoadLockedReq MSHR misses
system.cpu.dcache.LoadLockedReq_mshr_misses::total            1                       # number of LoadLockedReq MSHR misses
system.cpu.dcache.LoadLockedReq_mshr_miss_latency::.cpu.data        93000                       # number of LoadLockedReq MSHR miss cycles
system.cpu.dcache.LoadLockedReq_mshr_miss_latency::total        93000                       # number of LoadLockedReq MSHR miss cycles
system.cpu.dcache.LoadLockedReq_mshr_miss_rate::.cpu.data     0.071429                       # mshr miss rate for LoadLockedReq accesses
system.cpu.dcache.LoadLockedReq_mshr_miss_rate::total     0.071429                       # mshr miss rate for LoadLockedReq accesses
system.cpu.dcache.LoadLockedReq_avg_mshr_miss_latency::.cpu.data        93000                       # average LoadLockedReq mshr miss latency
system.cpu.dcache.LoadLockedReq_avg_mshr_miss_latency::total        93000                       # average LoadLockedReq mshr miss latency
system.cpu.dcache.StoreCondReq_hits::.cpu.data           14                       # number of StoreCondReq hits
system.cpu.dcache.StoreCondReq_hits::total           14                       # number of StoreCondReq hits
system.cpu.dcache.StoreCondReq_accesses::.cpu.data           14                       # number of StoreCondReq accesses(hits+misses)
system.cpu.dcache.StoreCondReq_accesses::total           14                       # number of StoreCondReq accesses(hits+misses)
system.cpu.dcache.tags.pwrStateResidencyTicks::UNDEFINED 265595160000                       # Cumulative time (in ticks) in various power states
system.cpu.dcache.tags.tagsinuse           511.801110                       # Cycle average of tags in use
system.cpu.dcache.tags.total_refs            47296099                       # Total number of references to valid blocks.
system.cpu.dcache.tags.sampled_refs           1543231                       # Sample count of references to valid blocks.
system.cpu.dcache.tags.avg_refs             30.647453                       # Average number of references to valid blocks.
system.cpu.dcache.tags.warmup_cycle            240000                       # Cycle when the warmup percentage was hit.
system.cpu.dcache.tags.occ_blocks::.cpu.data   511.801110                       # Average occupied blocks per requestor
system.cpu.dcache.tags.occ_percent::.cpu.data     0.999612                       # Average percentage of cache occupancy
system.cpu.dcache.tags.occ_percent::total     0.999612                       # Average percentage of cache occupancy
system.cpu.dcache.tags.occ_task_id_blocks::1024          512                       # Occupied blocks per task id
system.cpu.dcache.tags.age_task_id_blocks_1024::0           57                       # Occupied blocks per task id
system.cpu.dcache.tags.age_task_id_blocks_1024::1          455                       # Occupied blocks per task id
system.cpu.dcache.tags.occ_task_id_percent::1024            1                       # Percentage of cache occupancy per task id
system.cpu.dcache.tags.tag_accesses          50349766                       # Number of tag accesses
system.cpu.dcache.tags.data_accesses         50349766                       # Number of data accesses
system.cpu.itb.walker.pwrStateResidencyTicks::UNDEFINED 265595160000                       # Cumulative time (in ticks) in various power states
system.cpu.itb.stage2_mmu.stage2_tlb.walker.pwrStateResidencyTicks::UNDEFINED 265595160000                       # Cumulative time (in ticks) in various power states

---------- End Simulation Statistics   ----------
